Canindé/OpenDSS/Sinap_Rede_CAI_teste_sem_trafos.dss
//--------------------------------------------------------------------------------
//Modelo de rede: padrão ANEEL
//--------------------------------------------------------------------------------
//Transformadores trifásicos: ligacação Dy1
//--------------------------------------------------------------------------------
//Reinicia o programa
Clear
//--------------------------------------------------------------------------------
//Bloco com dados de fronteira
New Circuit.Rede_CAI_teste_sem_trafos
~ bus1=3326 basekv=88.00000000 pu=1.000 phases=3 mvasc3=600.0 600.0
//--------------------------------------------------------------------------------
//Bloco com dados de arranjos Z0/Z1
New Linecode.64 nphases=3 basefreq=60 units=km normamps=500.0 r1=0.20000000 x1=0.40000001 c1=0.000   ! código=SNP_BAR_CABO_EPR_15KV_CU_3X500MM__ABCN_id64
New Linecode.121 nphases=3 basefreq=60 units=km normamps=500.0 r1=0.20000000 x1=0.40000001 c1=0.000   ! código=SNP_SING_PVC_CU_1X500_MM__ABCN_id121
New Linecode.122 nphases=3 basefreq=60 units=km normamps=500.0 r1=0.20000000 x1=0.40000001 c1=0.000   ! código=SNP_SING_PVC_CU_1X70_MM__ABCN_id122
New Linecode.144 nphases=3 basefreq=60 units=km normamps=500.0 r1=0.20000000 x1=0.40000001 c1=0.000   ! código=SNP_Sing_XLPE_1KV_CU_70_mm__NEUTRO_ABCN_id144
New Linecode.46 nphases=3 basefreq=60 units=km normamps=500.0 r1=0.20000000 x1=0.40000001 c1=0.000   ! código=SNP_SING_PVC_CU_35_MM__ABCN_id46
New Linecode.139 nphases=3 basefreq=60 units=km normamps=500.0 r1=0.20000000 x1=0.40000001 c1=0.000   ! código=SNP_Sing_XLPE_1KV_CU_1x240_mm__ABCN_id139
New Linecode.21 nphases=3 basefreq=60 units=km normamps=500.0 r1=0.20000000 x1=0.40000001 c1=0.000   ! código=SNP_QUAD_XLPE_1KV_CU_4X1X35MM2_ABCN_id21
New Linecode.57 nphases=3 basefreq=60 units=km normamps=500.0 r1=0.20000000 x1=0.40000001 c1=0.000   ! código=SNP_TRIPLEX_XLPE_CU_3X1X35_MM2_ABCN_id57
New Linecode.155 nphases=3 basefreq=60 units=km normamps=500.0 r1=0.20000000 x1=0.40000001 c1=0.000   ! código=SNP_TRIP_EPRL_35KV_AL_3X1X750MM__ABCN_id155
New Linecode.206 nphases=3 basefreq=60 units=km normamps=428.0 r1=0.12192000 x1=0.24334000 c1=0.000   ! código=AES_SPACER_XLPE_25KV_AL_300_MM__ABCN_id206
New Linecode.207 nphases=3 basefreq=60 units=km normamps=212.0 r1=0.51857001 x1=0.29923001 c1=0.000   ! código=AES_SPACER_XLPE_25KV_AL_70_MM__ABCN_id207
New Linecode.205 nphases=3 basefreq=60 units=km normamps=361.0 r1=0.19673000 x1=0.26192001 c1=0.000   ! código=AES_SPACER_XLPE_25KV_AL_185_MM__ABCN_id205
New Linecode.259 nphases=3 basefreq=60 units=km normamps=420.0 r1=0.09412000 x1=0.12342000 c1=0.000   ! código=AES_Triplex_EPR_15KV_CU_3x1x240_mm_ABCN_id259
New Linecode.248 nphases=3 basefreq=60 units=km normamps=216.0 r1=0.31514001 x1=0.17095999 c1=0.000   ! código=AES_Quadr_EPR_35KV_CU_3x1x70_mm__ABCN_id248
New Linecode.243 nphases=3 basefreq=60 units=km normamps=435.0 r1=0.09408000 x1=0.13315000 c1=0.000   ! código=AES_QUADR_EPR_25KV_CU_3X1X240_MM__ABCN_id243
New Linecode.228 nphases=3 basefreq=60 units=km normamps=219.0 r1=0.31524000 x1=0.14808001 c1=0.000   ! código=AES_TRIP_XLPE_15KV_CU_3X1X70MM__ABCN_id228
New Linecode.255 nphases=3 basefreq=60 units=km normamps=117.0 r1=1.03840005 x1=0.16366000 c1=0.000   ! código=AES_Quadr_XLPE_15KV_AL_3x1x35_mm__ABCN_id255
New Linecode.278 nphases=3 basefreq=60 units=km normamps=212.0 r1=0.51857001 x1=0.29923001 c1=0.000   ! código=AES_SPACER_XLPE_25KV_AL_70_MM__BCN_id278
New Linecode.300 nphases=3 basefreq=60 units=km normamps=212.0 r1=0.51857001 x1=0.29923001 c1=0.000   ! código=AES_SPACER_XLPE_25KV_AL_70_MM__ABN_id300
New Linecode.197 nphases=3 basefreq=60 units=km normamps=435.0 r1=0.15200000 x1=0.11980000 c1=0.000   ! código=AES_PR__REU_15KV_AL_3X1X240_120MM__ABCN_id197
New Linecode.240 nphases=3 basefreq=60 units=km normamps=450.0 r1=0.09341000 x1=0.11466000 c1=0.000   ! código=AES_Quadr_EPR_15KV_AL_3x1x400_mm__ABCN_id240
//--------------------------------------------------------------------------------
//Bloco com dados de arranjos Cabo/Fase
New Linecode.307 nphases=4 basefreq=60 units=km normamps=364.0 r1=0.21340024 x1=0.37136766 c1=0.000   ! código=AES001_SING_N__AL_336_4_MCM_ABCN_id307
New Linecode.308 nphases=4 basefreq=60 units=km normamps=71.0 r1=1.37152565 x1=0.44115028 c1=0.000   ! código=AES002_SING_N___CU_16_MM__ABCN_id308
New Linecode.321 nphases=3 basefreq=60 units=km normamps=71.0 r1=1.37151027 x1=0.47602144 c1=0.000   ! código=AES015_SING_N___CU_16_MM__CAN_id321
New Linecode.432 nphases=4 basefreq=60 units=km normamps=323.0 r1=0.18341924 x1=0.37502924 c1=0.000   ! código=AES126_SING_XLPE_CU_4_0_AWG_ABCN_id432
New Linecode.358 nphases=4 basefreq=60 units=km normamps=236.0 r1=0.31370249 x1=0.39351702 c1=0.000   ! código=AES052_SING_PVC_CU_1X70_MM__ABCN_id358
New Linecode.311 nphases=3 basefreq=60 units=km normamps=71.0 r1=1.37151003 x1=0.42163539 c1=0.000   ! código=AES005_SING_N___CU_16_MM__ABN_id311
New Linecode.310 nphases=4 basefreq=60 units=km normamps=193.0 r1=0.67813778 x1=0.37858734 c1=0.000   ! código=AES004_SING_PVC_AL_1_0_AWG_ABCN_id310
New Linecode.309 nphases=4 basefreq=60 units=km normamps=193.0 r1=0.67813689 x1=0.41592708 c1=0.000   ! código=AES003_SING_N__AL_1_0_AWG_ABCN_id309
New Linecode.315 nphases=2 basefreq=60 units=km normamps=71.0 r1=1.42926097 x1=0.95869344 c1=0.000   ! código=AES009_SING_N___CU_16_MM__CN_id315
New Linecode.312 nphases=3 basefreq=60 units=km normamps=71.0 r1=1.37151015 x1=0.42582524 c1=0.000   ! código=AES006_SING_N___CU_16_MM__BCN_id312
New Linecode.379 nphases=3 basefreq=60 units=km normamps=193.0 r1=0.67812008 x1=0.35908347 c1=0.000   ! código=AES073_SING_PVC_AL_1_0_AWG_ABN_id379
New Linecode.316 nphases=2 basefreq=60 units=km normamps=71.0 r1=1.42926097 x1=0.95869344 c1=0.000   ! código=AES010_SING_N___CU_16_MM__AN_id316
New Linecode.319 nphases=2 basefreq=60 units=km normamps=193.0 r1=0.73587096 x1=0.93348110 c1=0.000   ! código=AES013_SING_N__AL_1_0_AWG_CN_id319
New Linecode.359 nphases=2 basefreq=60 units=km normamps=193.0 r1=0.73587096 x1=0.89614153 c1=0.000   ! código=AES053_SING_PVC_AL_1_0_AWG_AN_id359
New Linecode.405 nphases=4 basefreq=60 units=km normamps=61.0 r1=1.37152541 x1=0.46789026 c1=0.000   ! código=AES099_SING_N__CU_16_MM__ABCN_id405
New Linecode.313 nphases=2 basefreq=60 units=km normamps=71.0 r1=1.42926097 x1=0.95869344 c1=0.000   ! código=AES007_SING_N___CU_16_MM__BN_id313
New Linecode.357 nphases=4 basefreq=60 units=km normamps=554.0 r1=0.12941776 x1=0.35234803 c1=0.000   ! código=AES051_SING_N__AL_556_5_MCM_ABCN_id357
New Linecode.317 nphases=2 basefreq=60 units=km normamps=193.0 r1=0.73587096 x1=0.93348110 c1=0.000   ! código=AES011_SING_N__AL_1_0_AWG_BN_id317
New Linecode.314 nphases=3 basefreq=60 units=km normamps=193.0 r1=0.67812008 x1=0.40061289 c1=0.000   ! código=AES008_SING_N__AL_1_0_AWG_BCN_id314
New Linecode.397 nphases=2 basefreq=60 units=km normamps=61.0 r1=1.42926097 x1=0.98543352 c1=0.000   ! código=AES091_SING_N__CU_16_MM__BN_id397
New Linecode.380 nphases=4 basefreq=60 units=km normamps=554.0 r1=0.12948781 x1=0.35045779 c1=0.000   ! código=AES074_SING_N__CAA_556_5_MCM_ABCN_id380
New Linecode.318 nphases=3 basefreq=60 units=km normamps=193.0 r1=0.67812008 x1=0.39642304 c1=0.000   ! código=AES012_SING_N__AL_1_0_AWG_ABN_id318
New Linecode.472 nphases=3 basefreq=60 units=km normamps=61.0 r1=1.37151027 x1=0.50276154 c1=0.000   ! código=AES166_SING_N__CU_16_MM__CAN_id472
New Linecode.352 nphases=3 basefreq=60 units=km normamps=193.0 r1=0.67812026 x1=0.45080909 c1=0.000   ! código=AES046_SING_N__AL_1_0_AWG_CAN_id352
New Linecode.447 nphases=3 basefreq=60 units=km normamps=61.0 r1=1.37151003 x1=0.44837546 c1=0.000   ! código=AES141_SING_N__CU_16_MM__ABN_id447
New Linecode.370 nphases=2 basefreq=60 units=km normamps=364.0 r1=0.27114093 x1=0.88893354 c1=0.000   ! código=AES064_SING_N__AL_336_4_MCM_AN_id370
New Linecode.436 nphases=4 basefreq=60 units=km normamps=71.0 r1=3.65569806 x1=0.50431466 c1=0.000   ! código=AES130_SING_N__CU_6_MM__ABCN_id436
//--------------------------------------------------------------------------------
//Bloco com dados de curvas típicas de demanda
New Loadshape.221  npts=24  interval=1  mult=(0.98802318 0.88500968 0.81049210 0.78461502 0.75908133 0.74241084 0.76963982 0.80480593 0.86259743 0.90485707 0.92762777 0.89857360 0.98382700 1.03174907 0.97327998 1.04404931 1.08630272 1.10348275 1.19519472 1.41969298 1.31428476 1.29648025 1.28227387 1.13164882)    ! código=Residencial
New Loadshape.222  npts=24  interval=1  mult=(0.66184809 0.64107463 0.65094664 0.67845975 0.73578879 0.91535083 1.01917929 1.20201301 1.25879653 1.26922296 1.31908241 1.35313228 1.19477469 1.24230900 1.30989296 1.26039346 1.18945635 1.17018301 1.01761601 0.95088503 0.83115784 0.75428989 0.67735159 0.69679492)    ! código=Industrial
New Loadshape.223  npts=24  interval=1  mult=(0.83191408 0.81189009 0.79701910 0.79076673 0.76592310 0.77533041 0.69708322 0.85594726 1.07784279 1.21439804 1.24538894 1.30135240 1.19887726 1.17732707 1.12801718 1.09414405 1.08995797 1.11538187 1.15832661 1.12313018 1.05811680 0.95220002 0.93000446 0.80966040)    ! código=Rural
New Loadshape.224  npts=24  interval=1  mult=(0.90103504 0.90717216 0.89595885 0.88158390 0.88732377 0.88428147 0.90327382 0.99314485 1.12772309 1.19717264 1.23347049 1.23295293 1.14892882 1.16497417 1.19143695 1.19205001 1.14986728 1.06412816 0.87212055 0.83373753 0.80591526 0.81885063 0.86283544 0.85006217)    ! código=A4
New Loadshape.225  npts=24  interval=1  mult=(0.67255972 0.64485739 0.64018344 0.62167027 0.61216725 0.61277292 0.65417129 0.76082965 1.04763658 1.28695544 1.41175977 1.44999759 1.42638176 1.34339058 1.35311128 1.35959760 1.29437177 1.29561484 1.19585957 1.09304591 0.95405524 0.82880560 0.74591732 0.69428721)    ! código=Comercial
New Loadshape.226  npts=24  interval=1  mult=(0.67255972 0.64485739 0.64018344 0.62167027 0.61216725 0.61277292 0.65417129 0.76082965 1.04763658 1.28695544 1.41175977 1.44999759 1.42638176 1.34339058 1.35311128 1.35959760 1.29437177 1.29561484 1.19585957 1.09304591 0.95405524 0.82880560 0.74591732 0.69428721)    ! código=Outros
//--------------------------------------------------------------------------------
//Bloco com dados de curvas típicas de IP
New Loadshape.227  npts=24  interval=1  mult=(0.99299997 1.00000000 0.99800003 0.98199999 0.97700000 0.98799998 0.31400001 0.14700000 0.00000000 0.00000000 0.00000000 0.00000000 0.00000000 0.00000000 0.00000000 0.00000000 0.01700000 0.64399999 0.97700000 0.97399998 0.97899997 0.98199999 0.97700000 0.99199998)    ! código=IP
//--------------------------------------------------------------------------------
//Bloco com dados de curvas próprias de demanda
New Loadshape.431  npts=24  interval=1   ! código=152ET025018
~ pmult=(0.99370033 0.93367253 0.90348570 0.88912211 0.85960129 0.82353898 0.82079314 0.81865395 0.94168979 0.96688109 1.06850712 1.03935278 1.03569299 0.99803738 1.02827529 0.98882339 0.96685960 0.99424749 1.09791390 1.24164335 1.21695825 1.18519026 1.14767316 1.03968613)
~ qmult=(0.99148528 0.93391312 0.90337497 0.88803915 0.86041055 0.82323190 0.82066443 0.82050415 0.94302359 0.96735835 1.06841005 1.03931855 1.03648759 0.99745092 1.02859774 0.98702855 0.96719325 0.99496106 1.09784600 1.24161754 1.21690316 1.18658458 1.14591471 1.03968081)
New Loadshape.432  npts=24  interval=1   ! código=152IP19G431
~ pmult=(1.50000000 1.50000000 1.50000000 1.50000000 1.50000000 1.50000000 1.50000000 1.50000000 0.00000000 0.00000000 0.00000000 0.00000000 0.00000000 0.00000000 0.00000000 0.00000000 1.50000000 1.50000000 1.50000000 1.50000000 1.50000000 1.50000000 1.50000000 1.50000000)
~ qmult=(1.50000000 1.50000000 1.50000000 1.50000000 1.50000000 1.50000000 1.50000000 1.50000000 0.00000000 0.00000000 0.00000000 0.00000000 0.00000000 0.00000000 0.00000000 0.00000000 1.50000000 1.50000000 1.50000000 1.50000000 1.50000000 1.50000000 1.50000000 1.50000000)
New Loadshape.433  npts=24  interval=1   ! código=152ET000657
~ pmult=(0.73500536 0.70604704 0.69414859 0.67685435 0.66404373 0.65211720 0.65020560 0.73569667 1.05251372 1.25363161 1.40558534 1.40976201 1.36110538 1.24797781 1.24954529 1.24382633 1.19524856 1.18665516 1.15774510 1.11089359 1.03995707 0.94532259 0.84729368 0.77881823)
~ qmult=(0.73522167 0.70600886 0.69476599 0.67741822 0.66351752 0.65204446 0.65019248 0.73559052 1.05301193 1.25311551 1.40568104 1.40980290 1.36027897 1.24813201 1.24978937 1.24391499 1.19483865 1.18636066 1.15800350 1.11139540 1.03968978 0.94556640 0.84706094 0.77859821)
New Loadshape.430  npts=24  interval=1   ! código=152ET025407
~ pmult=(0.86126635 0.80083726 0.76737232 0.74742792 0.72716816 0.71257153 0.74041443 0.79427217 0.95809574 1.07559355 1.15877516 1.15913635 1.17780413 1.15134608 1.14671659 1.16048043 1.14018931 1.15530146 1.16971933 1.23724431 1.13722963 1.07125228 1.02387067 0.92591481)
~ qmult=(0.86191616 0.80056152 0.76672161 0.74811904 0.72662700 0.71282338 0.73998580 0.79380363 0.95805203 1.07500737 1.15898278 1.15930128 1.17678187 1.15181930 1.14674773 1.16110889 1.13993683 1.15595077 1.17054067 1.23795335 1.13793302 1.07091796 1.02333684 0.92507116)
New Loadshape.429  npts=24  interval=1   ! código=152ET007562
~ pmult=(0.72156756 0.68216558 0.66664126 0.64698408 0.63499059 0.63291244 0.67210962 0.76766147 1.01889039 1.22759575 1.33654886 1.36433267 1.35762989 1.29497648 1.29410379 1.31057645 1.26204776 1.26576674 1.19575624 1.14379134 1.01001757 0.90145984 0.82924140 0.76223222)
~ qmult=(0.72156762 0.68216552 0.66664125 0.64698409 0.63499067 0.63291248 0.67210954 0.76766147 1.01889042 1.22759566 1.33654873 1.36433282 1.35762996 1.29497638 1.29410382 1.31057652 1.26204787 1.26576666 1.19575638 1.14379125 1.01001751 0.90145979 0.82924140 0.76223220)
New Loadshape.434  npts=24  interval=1   ! código=152ET004501
~ pmult=(0.98870675 0.92171419 0.88522852 0.86834216 0.83951555 0.80884678 0.81951620 0.82544523 0.92529915 0.95451174 1.03683086 1.01346274 1.03025187 1.01462494 1.03346224 1.01258960 0.99792842 1.02738949 1.11938304 1.26966547 1.21905661 1.18646683 1.15703576 1.04472587)
~ qmult=(0.98898761 0.92191034 0.88586952 0.86866493 0.83957485 0.80860822 0.82021827 0.82506918 0.92557573 0.95521800 1.03637803 1.01301286 1.03006882 1.01476281 1.03297479 1.01185988 0.99792807 1.02740342 1.11922622 1.26935319 1.21941676 1.18732353 1.15713138 1.04346359)
New Loadshape.438  npts=24  interval=1   ! código=152ET029938
~ pmult=(0.67255973 0.64485742 0.64018344 0.62167024 0.61216724 0.61277294 0.65417131 0.76082964 1.04763661 1.28695550 1.41175975 1.44999756 1.42638172 1.34339064 1.35311126 1.35959761 1.29437172 1.29561487 1.19585952 1.09304596 0.95405526 0.82880559 0.74591733 0.69428718)
~ qmult=(0.67255971 0.64485735 0.64018341 0.62167031 0.61216721 0.61277293 0.65417129 0.76082963 1.04763663 1.28695546 1.41175969 1.44999764 1.42638182 1.34339051 1.35311132 1.35959753 1.29437179 1.29561485 1.19585954 1.09304598 0.95405525 0.82880560 0.74591734 0.69428721)
New Loadshape.436  npts=24  interval=1   ! código=152IP19G299
~ pmult=(1.50000000 1.50000000 1.50000000 1.50000000 1.50000000 1.50000000 1.50000000 1.50000000 0.00000000 0.00000000 0.00000000 0.00000000 0.00000000 0.00000000 0.00000000 0.00000000 1.50000000 1.50000000 1.50000000 1.50000000 1.50000000 1.50000000 1.50000000 1.50000000)
~ qmult=(1.50000000 1.50000000 1.50000000 1.50000000 1.50000000 1.50000000 1.50000000 1.50000000 0.00000000 0.00000000 0.00000000 0.00000000 0.00000000 0.00000000 0.00000000 0.00000000 1.50000000 1.50000000 1.50000000 1.50000000 1.50000000 1.50000000 1.50000000 1.50000000)
New Loadshape.437  npts=24  interval=1   ! código=152ET071563
~ pmult=(0.92697060 0.87030302 0.83910829 0.82167763 0.79667957 0.76944158 0.77022953 0.79555748 0.96081773 1.03269137 1.13782335 1.11645746 1.11212576 1.06553374 1.07688872 1.06029493 1.03944142 1.05627461 1.12538819 1.23041801 1.18424630 1.13873804 1.08813471 0.98475795)
~ qmult=(0.92686329 0.86978460 0.83947820 0.82168959 0.79665656 0.77002656 0.77037859 0.79551030 0.96110506 1.03310673 1.13754977 1.11591596 1.11153923 1.06571514 1.07630764 1.05981722 1.03958020 1.05604156 1.12529790 1.23074055 1.18445504 1.13878733 1.08848361 0.98516938)
New Loadshape.435  npts=24  interval=1   ! código=152ET132570
~ pmult=(0.00000000 0.00000000 0.00000000 0.00000000 0.00000000 0.00000000 0.00000000 0.00000000 0.00000000 0.00000000 0.00000000 0.00000000 0.00000000 0.00000000 0.00000000 0.00000000 0.00000000 0.00000000 0.00000000 0.00000000 0.00000000 0.00000000 0.00000000 0.00000000)
~ qmult=(0.00000000 0.00000000 0.00000000 0.00000000 0.00000000 0.00000000 0.00000000 0.00000000 0.00000000 0.00000000 0.00000000 0.00000000 0.00000000 0.00000000 0.00000000 0.00000000 0.00000000 0.00000000 0.00000000 0.00000000 0.00000000 0.00000000 0.00000000 0.00000000)
New Loadshape.447  npts=24  interval=1   ! código=152ET023400
~ pmult=(0.00000000 0.00000000 0.00000000 0.00000000 0.00000000 0.00000000 0.00000000 0.00000000 0.00000000 0.00000000 0.00000000 0.00000000 0.00000000 0.00000000 0.00000000 0.00000000 0.00000000 0.00000000 0.00000000 0.00000000 0.00000000 0.00000000 0.00000000 0.00000000)
~ qmult=(0.00000000 0.00000000 0.00000000 0.00000000 0.00000000 0.00000000 0.00000000 0.00000000 0.00000000 0.00000000 0.00000000 0.00000000 0.00000000 0.00000000 0.00000000 0.00000000 0.00000000 0.00000000 0.00000000 0.00000000 0.00000000 0.00000000 0.00000000 0.00000000)
New Loadshape.445  npts=24  interval=1   ! código=152IP19G297
~ pmult=(1.50000000 1.50000000 1.50000000 1.50000000 1.50000000 1.50000000 1.50000000 1.50000000 0.00000000 0.00000000 0.00000000 0.00000000 0.00000000 0.00000000 0.00000000 0.00000000 1.50000000 1.50000000 1.50000000 1.50000000 1.50000000 1.50000000 1.50000000 1.50000000)
~ qmult=(1.50000000 1.50000000 1.50000000 1.50000000 1.50000000 1.50000000 1.50000000 1.50000000 0.00000000 0.00000000 0.00000000 0.00000000 0.00000000 0.00000000 0.00000000 0.00000000 1.50000000 1.50000000 1.50000000 1.50000000 1.50000000 1.50000000 1.50000000 1.50000000)
New Loadshape.446  npts=24  interval=1   ! código=152IP19G613
~ pmult=(1.50000000 1.50000000 1.50000000 1.50000000 1.50000000 1.50000000 1.50000000 1.50000000 0.00000000 0.00000000 0.00000000 0.00000000 0.00000000 0.00000000 0.00000000 0.00000000 1.50000000 1.50000000 1.50000000 1.50000000 1.50000000 1.50000000 1.50000000 1.50000000)
~ qmult=(1.50000000 1.50000000 1.50000000 1.50000000 1.50000000 1.50000000 1.50000000 1.50000000 0.00000000 0.00000000 0.00000000 0.00000000 0.00000000 0.00000000 0.00000000 0.00000000 1.50000000 1.50000000 1.50000000 1.50000000 1.50000000 1.50000000 1.50000000 1.50000000)
New Loadshape.449  npts=24  interval=1   ! código=152ET024923
~ pmult=(0.72998758 0.70909642 0.69865076 0.68217884 0.67012623 0.65244906 0.61749641 0.70186482 1.08353138 1.29003307 1.47805410 1.46359106 1.38123138 1.22575249 1.22213665 1.20606650 1.16026650 1.13696476 1.13455425 1.08594196 1.06103319 0.97465597 0.85212092 0.78221570)
~ qmult=(0.72993043 0.70918307 0.69880939 0.68183427 0.67051752 0.65259932 0.61770601 0.70163856 1.08357896 1.29010962 1.47777906 1.46363314 1.38158673 1.22598140 1.22220912 1.20617707 1.15996696 1.13639043 1.13450429 1.08546501 1.06094546 0.97512668 0.85158555 0.78274194)
New Loadshape.450  npts=24  interval=1   ! código=152ET051639
~ pmult=(0.67255977 0.64485743 0.64018345 0.62167023 0.61216723 0.61277293 0.65417131 0.76082961 1.04763663 1.28695544 1.41175973 1.44999756 1.42638171 1.34339059 1.35311125 1.35959759 1.29437174 1.29561484 1.19585958 1.09304599 0.95405525 0.82880562 0.74591732 0.69428717)
~ qmult=(0.67255975 0.64485739 0.64018342 0.62167031 0.61216726 0.61277293 0.65417130 0.76082963 1.04763661 1.28695543 1.41175966 1.44999772 1.42638187 1.34339049 1.35311127 1.35959753 1.29437180 1.29561476 1.19585961 1.09304597 0.95405519 0.82880557 0.74591733 0.69428719)
New Loadshape.453  npts=24  interval=1   ! código=152IP19G481
~ pmult=(1.50000000 1.50000000 1.50000000 1.50000000 1.50000000 1.50000000 1.50000000 1.50000000 0.00000000 0.00000000 0.00000000 0.00000000 0.00000000 0.00000000 0.00000000 0.00000000 1.50000000 1.50000000 1.50000000 1.50000000 1.50000000 1.50000000 1.50000000 1.50000000)
~ qmult=(1.50000000 1.50000000 1.50000000 1.50000000 1.50000000 1.50000000 1.50000000 1.50000000 0.00000000 0.00000000 0.00000000 0.00000000 0.00000000 0.00000000 0.00000000 0.00000000 1.50000000 1.50000000 1.50000000 1.50000000 1.50000000 1.50000000 1.50000000 1.50000000)
New Loadshape.454  npts=24  interval=1   ! código=152IP19G479
~ pmult=(1.50000000 1.50000000 1.50000000 1.50000000 1.50000000 1.50000000 1.50000000 1.50000000 0.00000000 0.00000000 0.00000000 0.00000000 0.00000000 0.00000000 0.00000000 0.00000000 1.50000000 1.50000000 1.50000000 1.50000000 1.50000000 1.50000000 1.50000000 1.50000000)
~ qmult=(1.50000000 1.50000000 1.50000000 1.50000000 1.50000000 1.50000000 1.50000000 1.50000000 0.00000000 0.00000000 0.00000000 0.00000000 0.00000000 0.00000000 0.00000000 0.00000000 1.50000000 1.50000000 1.50000000 1.50000000 1.50000000 1.50000000 1.50000000 1.50000000)
New Loadshape.443  npts=24  interval=1   ! código=152IP19G433
~ pmult=(1.50000000 1.50000000 1.50000000 1.50000000 1.50000000 1.50000000 1.50000000 1.50000000 0.00000000 0.00000000 0.00000000 0.00000000 0.00000000 0.00000000 0.00000000 0.00000000 1.50000000 1.50000000 1.50000000 1.50000000 1.50000000 1.50000000 1.50000000 1.50000000)
~ qmult=(1.50000000 1.50000000 1.50000000 1.50000000 1.50000000 1.50000000 1.50000000 1.50000000 0.00000000 0.00000000 0.00000000 0.00000000 0.00000000 0.00000000 0.00000000 0.00000000 1.50000000 1.50000000 1.50000000 1.50000000 1.50000000 1.50000000 1.50000000 1.50000000)
New Loadshape.455  npts=24  interval=1   ! código=152IP19F043
~ pmult=(1.50000000 1.50000000 1.50000000 1.50000000 1.50000000 1.50000000 1.50000000 1.50000000 0.00000000 0.00000000 0.00000000 0.00000000 0.00000000 0.00000000 0.00000000 0.00000000 1.50000000 1.50000000 1.50000000 1.50000000 1.50000000 1.50000000 1.50000000 1.50000000)
~ qmult=(1.50000000 1.50000000 1.50000000 1.50000000 1.50000000 1.50000000 1.50000000 1.50000000 0.00000000 0.00000000 0.00000000 0.00000000 0.00000000 0.00000000 0.00000000 0.00000000 1.50000000 1.50000000 1.50000000 1.50000000 1.50000000 1.50000000 1.50000000 1.50000000)
New Loadshape.442  npts=24  interval=1   ! código=152IP19G615
~ pmult=(1.50000000 1.50000000 1.50000000 1.50000000 1.50000000 1.50000000 1.50000000 1.50000000 0.00000000 0.00000000 0.00000000 0.00000000 0.00000000 0.00000000 0.00000000 0.00000000 1.50000000 1.50000000 1.50000000 1.50000000 1.50000000 1.50000000 1.50000000 1.50000000)
~ qmult=(1.50000000 1.50000000 1.50000000 1.50000000 1.50000000 1.50000000 1.50000000 1.50000000 0.00000000 0.00000000 0.00000000 0.00000000 0.00000000 0.00000000 0.00000000 0.00000000 1.50000000 1.50000000 1.50000000 1.50000000 1.50000000 1.50000000 1.50000000 1.50000000)
New Loadshape.444  npts=24  interval=1   ! código=152ET024031
~ pmult=(0.67255973 0.64485743 0.64018345 0.62167023 0.61216724 0.61277297 0.65417130 0.76082963 1.04763667 1.28695548 1.41175970 1.44999760 1.42638167 1.34339059 1.35311124 1.35959759 1.29437170 1.29561489 1.19585951 1.09304600 0.95405523 0.82880562 0.74591734 0.69428719)
~ qmult=(0.67255972 0.64485741 0.64018342 0.62167033 0.61216722 0.61277293 0.65417127 0.76082962 1.04763659 1.28695541 1.41175970 1.44999763 1.42638181 1.34339055 1.35311131 1.35959755 1.29437184 1.29561486 1.19585954 1.09304591 0.95405521 0.82880562 0.74591733 0.69428719)
New Loadshape.451  npts=24  interval=1   ! código=152IP19G023
~ pmult=(1.50000000 1.50000000 1.50000000 1.50000000 1.50000000 1.50000000 1.50000000 1.50000000 0.00000000 0.00000000 0.00000000 0.00000000 0.00000000 0.00000000 0.00000000 0.00000000 1.50000000 1.50000000 1.50000000 1.50000000 1.50000000 1.50000000 1.50000000 1.50000000)
~ qmult=(1.50000000 1.50000000 1.50000000 1.50000000 1.50000000 1.50000000 1.50000000 1.50000000 0.00000000 0.00000000 0.00000000 0.00000000 0.00000000 0.00000000 0.00000000 0.00000000 1.50000000 1.50000000 1.50000000 1.50000000 1.50000000 1.50000000 1.50000000 1.50000000)
New Loadshape.448  npts=24  interval=1   ! código=354ET054240
~ pmult=(0.00000000 0.00000000 0.00000000 0.00000000 0.00000000 0.00000000 0.00000000 0.00000000 0.00000000 0.00000000 0.00000000 0.00000000 0.00000000 0.00000000 0.00000000 0.00000000 0.00000000 0.00000000 0.00000000 0.00000000 0.00000000 0.00000000 0.00000000 0.00000000)
~ qmult=(0.00000000 0.00000000 0.00000000 0.00000000 0.00000000 0.00000000 0.00000000 0.00000000 0.00000000 0.00000000 0.00000000 0.00000000 0.00000000 0.00000000 0.00000000 0.00000000 0.00000000 0.00000000 0.00000000 0.00000000 0.00000000 0.00000000 0.00000000 0.00000000)
New Loadshape.424  npts=24  interval=1   ! código=152IP19F046
~ pmult=(1.50000000 1.50000000 1.50000000 1.50000000 1.50000000 1.50000000 1.50000000 1.50000000 0.00000000 0.00000000 0.00000000 0.00000000 0.00000000 0.00000000 0.00000000 0.00000000 1.50000000 1.50000000 1.50000000 1.50000000 1.50000000 1.50000000 1.50000000 1.50000000)
~ qmult=(1.50000000 1.50000000 1.50000000 1.50000000 1.50000000 1.50000000 1.50000000 1.50000000 0.00000000 0.00000000 0.00000000 0.00000000 0.00000000 0.00000000 0.00000000 0.00000000 1.50000000 1.50000000 1.50000000 1.50000000 1.50000000 1.50000000 1.50000000 1.50000000)
New Loadshape.423  npts=24  interval=1   ! código=152IP19F045
~ pmult=(1.50000000 1.50000000 1.50000000 1.50000000 1.50000000 1.50000000 1.50000000 1.50000000 0.00000000 0.00000000 0.00000000 0.00000000 0.00000000 0.00000000 0.00000000 0.00000000 1.50000000 1.50000000 1.50000000 1.50000000 1.50000000 1.50000000 1.50000000 1.50000000)
~ qmult=(1.50000000 1.50000000 1.50000000 1.50000000 1.50000000 1.50000000 1.50000000 1.50000000 0.00000000 0.00000000 0.00000000 0.00000000 0.00000000 0.00000000 0.00000000 0.00000000 1.50000000 1.50000000 1.50000000 1.50000000 1.50000000 1.50000000 1.50000000 1.50000000)
New Loadshape.457  npts=24  interval=1   ! código=152ET133432
~ pmult=(0.00000000 0.00000000 0.00000000 0.00000000 0.00000000 0.00000000 0.00000000 0.00000000 0.00000000 0.00000000 0.00000000 0.00000000 0.00000000 0.00000000 0.00000000 0.00000000 0.00000000 0.00000000 0.00000000 0.00000000 0.00000000 0.00000000 0.00000000 0.00000000)
~ qmult=(0.00000000 0.00000000 0.00000000 0.00000000 0.00000000 0.00000000 0.00000000 0.00000000 0.00000000 0.00000000 0.00000000 0.00000000 0.00000000 0.00000000 0.00000000 0.00000000 0.00000000 0.00000000 0.00000000 0.00000000 0.00000000 0.00000000 0.00000000 0.00000000)
New Loadshape.452  npts=24  interval=1   ! código=354ET065199
~ pmult=(0.00000000 0.00000000 0.00000000 0.00000000 0.00000000 0.00000000 0.00000000 0.00000000 0.00000000 0.00000000 0.00000000 0.00000000 0.00000000 0.00000000 0.00000000 0.00000000 0.00000000 0.00000000 0.00000000 0.00000000 0.00000000 0.00000000 0.00000000 0.00000000)
~ qmult=(0.00000000 0.00000000 0.00000000 0.00000000 0.00000000 0.00000000 0.00000000 0.00000000 0.00000000 0.00000000 0.00000000 0.00000000 0.00000000 0.00000000 0.00000000 0.00000000 0.00000000 0.00000000 0.00000000 0.00000000 0.00000000 0.00000000 0.00000000 0.00000000)
New Loadshape.439  npts=24  interval=1   ! código=354IP19F177
~ pmult=(1.50000000 1.50000000 1.50000000 1.50000000 1.50000000 1.50000000 1.50000000 1.50000000 0.00000000 0.00000000 0.00000000 0.00000000 0.00000000 0.00000000 0.00000000 0.00000000 1.50000000 1.50000000 1.50000000 1.50000000 1.50000000 1.50000000 1.50000000 1.50000000)
~ qmult=(1.50000000 1.50000000 1.50000000 1.50000000 1.50000000 1.50000000 1.50000000 1.50000000 0.00000000 0.00000000 0.00000000 0.00000000 0.00000000 0.00000000 0.00000000 0.00000000 1.50000000 1.50000000 1.50000000 1.50000000 1.50000000 1.50000000 1.50000000 1.50000000)
New Loadshape.440  npts=24  interval=1   ! código=354IP19F031
~ pmult=(1.50000000 1.50000000 1.50000000 1.50000000 1.50000000 1.50000000 1.50000000 1.50000000 0.00000000 0.00000000 0.00000000 0.00000000 0.00000000 0.00000000 0.00000000 0.00000000 1.50000000 1.50000000 1.50000000 1.50000000 1.50000000 1.50000000 1.50000000 1.50000000)
~ qmult=(1.50000000 1.50000000 1.50000000 1.50000000 1.50000000 1.50000000 1.50000000 1.50000000 0.00000000 0.00000000 0.00000000 0.00000000 0.00000000 0.00000000 0.00000000 0.00000000 1.50000000 1.50000000 1.50000000 1.50000000 1.50000000 1.50000000 1.50000000 1.50000000)
New Loadshape.441  npts=24  interval=1   ! código=354IP19F179
~ pmult=(1.50000000 1.50000000 1.50000000 1.50000000 1.50000000 1.50000000 1.50000000 1.50000000 0.00000000 0.00000000 0.00000000 0.00000000 0.00000000 0.00000000 0.00000000 0.00000000 1.50000000 1.50000000 1.50000000 1.50000000 1.50000000 1.50000000 1.50000000 1.50000000)
~ qmult=(1.50000000 1.50000000 1.50000000 1.50000000 1.50000000 1.50000000 1.50000000 1.50000000 0.00000000 0.00000000 0.00000000 0.00000000 0.00000000 0.00000000 0.00000000 0.00000000 1.50000000 1.50000000 1.50000000 1.50000000 1.50000000 1.50000000 1.50000000 1.50000000)
New Loadshape.462  npts=24  interval=1   ! código=152IP18G499
~ pmult=(1.50000000 1.50000000 1.50000000 1.50000000 1.50000000 1.50000000 1.50000000 1.50000000 0.00000000 0.00000000 0.00000000 0.00000000 0.00000000 0.00000000 0.00000000 0.00000000 1.50000000 1.50000000 1.50000000 1.50000000 1.50000000 1.50000000 1.50000000 1.50000000)
~ qmult=(1.50000000 1.50000000 1.50000000 1.50000000 1.50000000 1.50000000 1.50000000 1.50000000 0.00000000 0.00000000 0.00000000 0.00000000 0.00000000 0.00000000 0.00000000 0.00000000 1.50000000 1.50000000 1.50000000 1.50000000 1.50000000 1.50000000 1.50000000 1.50000000)
New Loadshape.461  npts=24  interval=1   ! código=152IP18G498
~ pmult=(1.50000000 1.50000000 1.50000000 1.50000000 1.50000000 1.50000000 1.50000000 1.50000000 0.00000000 0.00000000 0.00000000 0.00000000 0.00000000 0.00000000 0.00000000 0.00000000 1.50000000 1.50000000 1.50000000 1.50000000 1.50000000 1.50000000 1.50000000 1.50000000)
~ qmult=(1.50000000 1.50000000 1.50000000 1.50000000 1.50000000 1.50000000 1.50000000 1.50000000 0.00000000 0.00000000 0.00000000 0.00000000 0.00000000 0.00000000 0.00000000 0.00000000 1.50000000 1.50000000 1.50000000 1.50000000 1.50000000 1.50000000 1.50000000 1.50000000)
New Loadshape.463  npts=24  interval=1   ! código=152ET074709
~ pmult=(0.00000000 0.00000000 0.00000000 0.00000000 0.00000000 0.00000000 0.00000000 0.00000000 0.00000000 0.00000000 0.00000000 0.00000000 0.00000000 0.00000000 0.00000000 0.00000000 0.00000000 0.00000000 0.00000000 0.00000000 0.00000000 0.00000000 0.00000000 0.00000000)
~ qmult=(0.00000000 0.00000000 0.00000000 0.00000000 0.00000000 0.00000000 0.00000000 0.00000000 0.00000000 0.00000000 0.00000000 0.00000000 0.00000000 0.00000000 0.00000000 0.00000000 0.00000000 0.00000000 0.00000000 0.00000000 0.00000000 0.00000000 0.00000000 0.00000000)
New Loadshape.465  npts=24  interval=1   ! código=152IP19G662
~ pmult=(1.50000000 1.50000000 1.50000000 1.50000000 1.50000000 1.50000000 1.50000000 1.50000000 0.00000000 0.00000000 0.00000000 0.00000000 0.00000000 0.00000000 0.00000000 0.00000000 1.50000000 1.50000000 1.50000000 1.50000000 1.50000000 1.50000000 1.50000000 1.50000000)
~ qmult=(1.50000000 1.50000000 1.50000000 1.50000000 1.50000000 1.50000000 1.50000000 1.50000000 0.00000000 0.00000000 0.00000000 0.00000000 0.00000000 0.00000000 0.00000000 0.00000000 1.50000000 1.50000000 1.50000000 1.50000000 1.50000000 1.50000000 1.50000000 1.50000000)
New Loadshape.459  npts=24  interval=1   ! código=152IP19G642
~ pmult=(1.50000000 1.50000000 1.50000000 1.50000000 1.50000000 1.50000000 1.50000000 1.50000000 0.00000000 0.00000000 0.00000000 0.00000000 0.00000000 0.00000000 0.00000000 0.00000000 1.50000000 1.50000000 1.50000000 1.50000000 1.50000000 1.50000000 1.50000000 1.50000000)
~ qmult=(1.50000000 1.50000000 1.50000000 1.50000000 1.50000000 1.50000000 1.50000000 1.50000000 0.00000000 0.00000000 0.00000000 0.00000000 0.00000000 0.00000000 0.00000000 0.00000000 1.50000000 1.50000000 1.50000000 1.50000000 1.50000000 1.50000000 1.50000000 1.50000000)
New Loadshape.460  npts=24  interval=1   ! código=152EP005588
~ pmult=(0.61397450 0.60810851 0.60566434 0.64232687 0.74156002 0.80633039 1.19128654 1.26827773 1.33011520 1.37948739 1.42128257 1.42665975 1.44499098 1.43863611 1.40441779 1.34429138 1.21279520 0.85399167 0.75280315 0.76135777 0.75329199 0.72151781 0.65405885 0.62277350)
~ qmult=(0.67401076 0.67401076 0.66766547 0.64933464 0.60914781 0.64721951 1.21406535 1.28033844 1.32264035 1.33251076 1.40512915 1.46576189 1.46928701 1.46153173 1.43967568 1.41922971 1.31417993 0.81713230 0.69586676 0.67119064 0.70080196 0.69798184 0.70080196 0.67048559)
New Loadshape.464  npts=24  interval=1   ! código=152EP010714
~ pmult=(0.94128232 0.90168727 0.87289092 0.85669294 0.83869515 0.86389203 0.91698535 0.96107985 1.00877389 1.01777278 1.02047242 1.01057370 1.02317213 1.02407197 1.06006748 1.04926884 1.05286839 1.10326207 1.12485940 1.12845901 1.11226096 1.05466819 1.04026995 1.01597298)
~ qmult=(1.01103312 0.92994771 0.95401996 0.89700679 0.93881648 0.89573981 1.03130443 0.96668957 0.96415561 0.97935909 0.94641817 0.91854508 0.92487988 0.94261732 0.98949483 1.02243575 1.02243575 1.12252549 1.14913160 1.13392812 1.10985588 1.06171148 1.05410969 1.03383839)
New Loadshape.458  npts=24  interval=1   ! código=152EP007289
~ pmult=(0.88156247 0.87296187 0.86436120 0.85576060 0.95036731 1.07077587 1.01487192 1.04497401 1.02347252 1.09227736 1.13528041 1.09227736 1.14388100 1.20838562 1.27289016 1.11377892 1.08367676 0.81705785 0.83425912 1.01057155 0.95036731 0.90736425 0.89446336 0.86436120)
~ qmult=(1.06351551 1.04579028 1.04579028 1.01033974 1.02806497 0.93943867 0.90398821 0.90398821 0.88626290 0.92171344 0.97488920 1.02806497 1.06351551 1.08124074 1.11669128 1.08124074 1.01033974 0.90398821 0.90398821 1.01033974 1.02806497 1.02806497 1.01033974 1.01033974)
New Loadshape.468  npts=24  interval=1   ! código=152ET071513
~ pmult=(0.67255972 0.64485740 0.64018345 0.62167024 0.61216722 0.61277295 0.65417128 0.76082965 1.04763668 1.28695552 1.41175974 1.44999751 1.42638172 1.34339056 1.35311131 1.35959754 1.29437168 1.29561490 1.19585958 1.09304592 0.95405531 0.82880563 0.74591732 0.69428716)
~ qmult=(0.67255976 0.64485736 0.64018345 0.62167029 0.61216726 0.61277296 0.65417128 0.76082961 1.04763663 1.28695540 1.41175978 1.44999764 1.42638176 1.34339051 1.35311135 1.35959756 1.29437178 1.29561488 1.19585956 1.09304592 0.95405520 0.82880557 0.74591732 0.69428718)
New Loadshape.456  npts=24  interval=1   ! código=152EP004401
~ pmult=(0.55301470 0.55161703 0.54788990 0.54649220 0.60100164 0.71374772 0.90755913 1.13677836 1.33152157 1.46150556 1.54396866 1.57285394 1.63435186 1.75035911 1.75874518 1.62130678 1.24253600 0.83953874 0.68672597 0.63268239 0.61311491 0.59960400 0.58842260 0.56466204)
~ qmult=(0.81446752 0.81580708 0.80910919 0.79035499 0.77427995 0.80509042 0.86805092 0.94306764 1.02746150 1.08640323 1.16945749 1.27126586 1.30475554 1.39852646 1.42397851 1.35699933 1.16141995 0.99531143 0.92029471 0.86269259 0.87340925 0.85733426 0.85197593 0.81848624)
New Loadshape.470  npts=24  interval=1   ! código=152ET027203
~ pmult=(0.97821494 0.89386182 0.83948550 0.81808120 0.79060616 0.76815126 0.78963836 0.81263129 0.89736547 0.94067569 0.99333164 0.96959485 1.01877859 1.03419092 1.01316646 1.04040503 1.05337609 1.07473610 1.16007451 1.34024750 1.25935426 1.22990849 1.20726982 1.07685404)
~ qmult=(0.97802681 0.89357431 0.83888573 0.81692211 0.79235818 0.76874977 0.78834401 0.81235384 0.89638149 0.93909612 0.99325261 0.96972843 1.02052240 1.03400818 1.01361269 1.03966202 1.05340436 1.07563830 1.16012604 1.34059891 1.25970875 1.23131630 1.20594619 1.07778247)
New Loadshape.476  npts=24  interval=1   ! código=152IP19G515
~ pmult=(1.50000000 1.50000000 1.50000000 1.50000000 1.50000000 1.50000000 1.50000000 1.50000000 0.00000000 0.00000000 0.00000000 0.00000000 0.00000000 0.00000000 0.00000000 0.00000000 1.50000000 1.50000000 1.50000000 1.50000000 1.50000000 1.50000000 1.50000000 1.50000000)
~ qmult=(1.50000000 1.50000000 1.50000000 1.50000000 1.50000000 1.50000000 1.50000000 1.50000000 0.00000000 0.00000000 0.00000000 0.00000000 0.00000000 0.00000000 0.00000000 0.00000000 1.50000000 1.50000000 1.50000000 1.50000000 1.50000000 1.50000000 1.50000000 1.50000000)
New Loadshape.477  npts=24  interval=1   ! código=152ET014788
~ pmult=(0.90857236 0.83462546 0.78853069 0.76703281 0.74451650 0.72857267 0.75464745 0.79971355 0.92733971 1.01562940 1.08079428 1.07068892 1.10866028 1.10586465 1.08677257 1.11550261 1.11409205 1.13056251 1.17379196 1.29469600 1.19604156 1.14660291 1.11087608 0.99587301)
~ qmult=(0.90785694 0.83454916 0.78902815 0.76751704 0.74395828 0.72817173 0.75514709 0.79957595 0.92696817 1.01633029 1.08138913 1.07024204 1.10810960 1.10609678 1.08685934 1.11471846 1.11358217 1.13019535 1.17407326 1.29517086 1.19570565 1.14725742 1.11130817 0.99618896)
New Loadshape.485  npts=24  interval=1   ! código=152ET131668
~ pmult=(1.02784312 0.97178241 0.94604007 0.93272277 0.90021662 0.85851522 0.85020767 0.83170006 0.94159809 0.94040852 1.04884123 1.01454834 1.00195771 0.95988670 1.00712774 0.94622362 0.91746656 0.95143467 1.07485717 1.22998120 1.22412247 1.19959529 1.16476683 1.05815592)
~ qmult=(1.02766762 0.97185522 0.94604138 0.93247670 0.90019318 0.85857496 0.84996483 0.83109132 0.94139414 0.94069347 1.04910785 1.01469049 1.00168944 0.95970171 1.00722756 0.94629045 0.91727788 0.95186984 1.07511900 1.23001012 1.22411987 1.19953147 1.16516498 1.05824651)
New Loadshape.494  npts=24  interval=1   ! código=152ET053161
~ pmult=(1.03909320 0.96842388 0.92704922 0.91135795 0.87854430 0.84213412 0.84939226 0.83549332 0.90692408 0.90248598 0.97809280 0.94427308 0.96698884 0.96315896 0.98398209 0.95593233 0.94793603 0.98295491 1.10525719 1.29269324 1.25912645 1.24058890 1.21964754 1.09846932)
~ qmult=(1.03772335 0.96733764 0.92423647 0.90903089 0.87926635 0.84106226 0.84617545 0.84065438 0.90702578 0.90404482 0.97791073 0.94499522 0.96771106 0.96326076 0.98483901 0.95596688 0.95053404 0.98146488 1.10437334 1.29365616 1.26008925 1.23615578 1.22206760 1.10041792)
New Loadshape.490  npts=24  interval=1   ! código=152EP002726
~ pmult=(0.06908960 0.06908960 0.06621087 0.06621087 0.06621087 0.14393666 2.15329254 2.84418865 2.49010425 2.45268073 2.21662467 2.10435410 1.95466000 2.08132427 2.16480745 1.78193597 0.75998560 0.09211946 0.07772580 0.06908960 0.06908960 0.06908960 0.06908960 0.06908960)
~ qmult=(1.48638127 1.49027239 1.49027239 1.48638127 1.48249030 1.45136195 0.81712062 0.27237355 0.21400778 0.17509727 0.22957199 0.30739298 0.44747082 0.39299610 0.29571985 0.48638133 1.06614787 1.48249030 1.48638127 1.47859918 1.49027239 1.49027239 1.49416350 1.48638127)
New Loadshape.486  npts=24  interval=1   ! código=152ET098063
~ pmult=(0.70640722 0.67062448 0.65845670 0.63915332 0.62793032 0.62668245 0.66656045 0.76554810 1.02778290 1.24595842 1.35981492 1.39083276 1.37889801 1.30995319 1.31235741 1.32574090 1.27204699 1.27500013 1.19578822 1.12809338 0.99270598 0.87898455 0.80346548 0.74121371)
~ qmult=(0.70640727 0.67062449 0.65845664 0.63915341 0.62793034 0.62668236 0.66656046 0.76554803 1.02778285 1.24595831 1.35981495 1.39083281 1.37889803 1.30995298 1.31235747 1.32574107 1.27204712 1.27500007 1.19578827 1.12809344 0.99270582 0.87898455 0.80346550 0.74121377)
New Loadshape.469  npts=24  interval=1   ! código=152ET131669
~ pmult=(1.04205140 0.98371268 0.95737328 0.94384866 0.91038238 0.86784675 0.86058700 0.83703871 0.93456480 0.92400209 1.02831598 0.99249441 0.98389139 0.94726647 0.99613282 0.93376263 0.90643848 0.94303645 1.07238283 1.23797174 1.23266070 1.21133515 1.18090824 1.07199498)
~ qmult=(1.04203541 0.98412749 0.95777265 0.94366851 0.91063938 0.86770286 0.86039788 0.83720267 0.93418277 0.92398110 1.02871669 0.99267777 0.98373449 0.94766709 0.99562392 0.93379590 0.90616134 0.94262600 1.07268635 1.23742667 1.23279879 1.21177061 1.18030501 1.07229865)
New Loadshape.480  npts=24  interval=1   ! código=152ET131670
~ pmult=(1.02536644 0.96894723 0.94280182 0.92941581 0.89711059 0.85624337 0.84742807 0.83004264 0.94242776 0.94320293 1.05158433 1.01719206 1.00476273 0.96239468 1.00796277 0.94892592 0.92049508 0.95396247 1.07610065 1.23023336 1.22397831 1.19914402 1.16364550 1.05663146)
~ qmult=(1.02524289 0.96835359 0.94357303 0.92983239 0.89774901 0.85608627 0.84763053 0.82958760 0.94209044 0.94341971 1.05175883 1.01771401 1.00492990 0.96189221 1.00773592 0.94848015 0.92084258 0.95285402 1.07626998 1.22979582 1.22406067 1.19880288 1.16392031 1.05737726)
New Loadshape.487  npts=24  interval=1   ! código=152EP045671
~ pmult=(0.48941176 0.48941176 0.48941176 0.48941176 0.47058822 0.48941176 0.99764703 1.67529407 1.86352940 1.76941173 1.73176474 1.69411757 1.60000008 1.60000008 1.65647057 1.56235291 1.11058827 0.73411762 0.56470589 0.50823531 0.50823531 0.50823531 0.50823531 0.48941176)
~ qmult=(0.85389854 0.87206665 0.85389854 0.85389854 0.83573052 0.83573052 1.10825130 1.27176385 1.27176385 1.23542771 1.21725961 1.19909158 1.09008327 1.10825130 1.19909158 1.18092356 0.99924298 0.87206665 0.85389854 0.83573052 0.85389854 0.87206665 0.87206665 0.85389854)
New Loadshape.504  npts=24  interval=1   ! código=152ET025815
~ pmult=(0.81605746 0.76947601 0.74747702 0.72919596 0.71127749 0.69743755 0.72018694 0.78252131 0.99316360 1.13817692 1.24555358 1.25183654 1.24561485 1.19015898 1.19751887 1.19667037 1.15876483 1.16986620 1.16216874 1.18017969 1.08560023 1.00580916 0.94401680 0.86127091)
~ qmult=(0.81538210 0.76905321 0.74782097 0.72881582 0.71223633 0.69681600 0.72093860 0.78281372 0.99330733 1.13851701 1.24543347 1.25212503 1.24539236 1.18946611 1.19643377 1.19688226 1.15844701 1.16924714 1.16277831 1.18054443 1.08663157 1.00630616 0.94348522 0.86112608)
New Loadshape.496  npts=24  interval=1   ! código=152IP19G383
~ pmult=(0.00000000 0.00000000 0.00000000 0.00000000 0.00000000 0.00000000 0.00000000 0.00000000 0.00000000 0.00000000 0.00000000 0.00000000 0.00000000 0.00000000 0.00000000 0.00000000 0.00000000 0.00000000 0.00000000 0.00000000 0.00000000 0.00000000 0.00000000 0.00000000)
~ qmult=(0.00000000 0.00000000 0.00000000 0.00000000 0.00000000 0.00000000 0.00000000 0.00000000 0.00000000 0.00000000 0.00000000 0.00000000 0.00000000 0.00000000 0.00000000 0.00000000 0.00000000 0.00000000 0.00000000 0.00000000 0.00000000 0.00000000 0.00000000 0.00000000)
New Loadshape.495  npts=24  interval=1   ! código=152ET071582
~ pmult=(0.76458673 0.72280331 0.70544186 0.68661019 0.67202518 0.66385272 0.69307804 0.77255730 1.01025235 1.19002576 1.30179547 1.31855439 1.30873182 1.24528396 1.24922128 1.25504307 1.21061557 1.21711095 1.17744054 1.15595574 1.04433526 0.94907386 0.87949478 0.80610986)
~ qmult=(0.76467297 0.72269430 0.70595887 0.68718361 0.67206663 0.66356832 0.69306536 0.77313400 1.01024784 1.19016248 1.30150035 1.31837244 1.30880290 1.24498282 1.24888213 1.25522820 1.21076351 1.21706253 1.17726747 1.15566715 1.04417628 0.94886776 0.87986845 0.80580365)
New Loadshape.508  npts=24  interval=1   ! código=152ET022069
~ pmult=(0.74875055 0.70412564 0.68379271 0.66351980 0.65020046 0.64604710 0.68359908 0.77221828 1.00476934 1.19621312 1.29792591 1.32028348 1.32087753 1.26750171 1.26312514 1.28256119 1.24150970 1.24669845 1.19349993 1.16745937 1.03832657 0.93833287 0.87146413 0.79719794)
~ qmult=(0.74862778 0.70383846 0.68399470 0.66306759 0.65023656 0.64591445 0.68346253 0.77255965 1.00525608 1.19602382 1.29855197 1.32025111 1.32084499 1.26796156 1.26261100 1.28187605 1.24131534 1.24716043 1.19333150 1.16731429 1.03819486 0.93869829 0.87118020 0.79772681)
New Loadshape.493  npts=24  interval=1   ! código=152EP052203
~ pmult=(0.96324459 0.92268699 0.91254750 0.91254750 0.93282639 0.90240810 0.78073511 0.76045626 0.77059571 0.80101391 0.84157160 0.85171100 0.87198990 0.88212930 0.89226870 0.90240810 0.99366288 1.17617237 1.34854245 1.53105202 1.51077313 1.32826365 1.18631177 1.02408108)
~ qmult=(0.92221181 0.92221181 0.92221181 0.92221181 0.92221181 0.98969071 1.19212742 1.19212742 1.16963449 1.16963449 1.14714156 1.12464852 1.10215559 1.07966265 1.05716962 1.05716962 1.03467668 0.85473291 0.78725400 0.85473291 0.87722584 0.87722584 0.89971888 0.92221181)
New Loadshape.500  npts=24  interval=1   ! código=152ET017672
~ pmult=(1.05643940 0.99172724 0.95918396 0.94451803 0.91095461 0.86919592 0.86854990 0.84356784 0.91740456 0.89764121 0.98772425 0.95180562 0.95832074 0.93882706 0.98090272 0.92890017 0.90909490 0.94820994 1.08091174 1.26566462 1.25049091 1.23311210 1.21103241 1.09582015)
~ qmult=(1.05606991 0.99194945 0.95925790 0.94479607 0.91068227 0.86932304 0.86828704 0.84348882 0.91651806 0.89768397 0.98764224 0.95261917 0.95784321 0.93848451 0.98121382 0.92912867 0.90945841 0.94770092 1.08096820 1.26624213 1.25005118 1.23350442 1.21094342 1.09614316)
New Loadshape.515  npts=24  interval=1   ! código=152ET001281
~ pmult=(0.94836906 0.87568410 0.83229175 0.81158262 0.78605340 0.76403018 0.78422506 0.81055077 0.92166079 0.98221461 1.05140881 1.03400955 1.06633945 1.06171594 1.05621082 1.06649293 1.06244456 1.08510218 1.15198582 1.29219245 1.21374933 1.17342726 1.14242676 1.02583180)
~ qmult=(0.94900625 0.87556254 0.83247035 0.81181854 0.78639388 0.76401064 0.78402132 0.81125877 0.92215339 0.98174911 1.05140908 1.03428968 1.06652933 1.06212767 1.05511854 1.06553356 1.06125368 1.08427120 1.15162926 1.29204674 1.21377145 1.17449343 1.14237485 1.02670674)
New Loadshape.518  npts=24  interval=1   ! código=152ET133163
~ pmult=(0.00000000 0.00000000 0.00000000 0.00000000 0.00000000 0.00000000 0.00000000 0.00000000 0.00000000 0.00000000 0.00000000 0.00000000 0.00000000 0.00000000 0.00000000 0.00000000 0.00000000 0.00000000 0.00000000 0.00000000 0.00000000 0.00000000 0.00000000 0.00000000)
~ qmult=(0.00000000 0.00000000 0.00000000 0.00000000 0.00000000 0.00000000 0.00000000 0.00000000 0.00000000 0.00000000 0.00000000 0.00000000 0.00000000 0.00000000 0.00000000 0.00000000 0.00000000 0.00000000 0.00000000 0.00000000 0.00000000 0.00000000 0.00000000 0.00000000)
New Loadshape.488  npts=24  interval=1   ! código=152ET056622
~ pmult=(0.85108634 0.78904094 0.75373003 0.73311401 0.71317224 0.70081427 0.73047902 0.78948089 0.95594081 1.08063433 1.16077856 1.16175280 1.18522749 1.16285169 1.15034808 1.17394503 1.15758746 1.17028067 1.17914549 1.24550900 1.13777549 1.07047800 1.02298946 0.92383786)
~ qmult=(0.85172559 0.79010679 0.75254253 0.73166309 0.71341177 0.70002577 0.73043780 0.78943018 0.95748611 1.08145747 1.15948366 1.16215621 1.18563911 1.16447225 1.15052228 1.17185603 1.15670967 1.17116759 1.17891173 1.24593592 1.13816311 1.06885637 1.02429655 0.92354240)
New Loadshape.426  npts=24  interval=1   ! código=152ET084330
~ pmult=(0.00000000 0.00000000 0.00000000 0.00000000 0.00000000 0.00000000 0.00000000 0.00000000 0.00000000 0.00000000 0.00000000 0.00000000 0.00000000 0.00000000 0.00000000 0.00000000 0.00000000 0.00000000 0.00000000 0.00000000 0.00000000 0.00000000 0.00000000 0.00000000)
~ qmult=(0.00000000 0.00000000 0.00000000 0.00000000 0.00000000 0.00000000 0.00000000 0.00000000 0.00000000 0.00000000 0.00000000 0.00000000 0.00000000 0.00000000 0.00000000 0.00000000 0.00000000 0.00000000 0.00000000 0.00000000 0.00000000 0.00000000 0.00000000 0.00000000)
New Loadshape.513  npts=24  interval=1   ! código=152ET085321
~ pmult=(0.77606415 0.72506262 0.69860498 0.67766503 0.66289657 0.65663403 0.68870640 0.77098062 0.99234877 1.16674762 1.26427590 1.27794838 1.28383867 1.23701530 1.22492301 1.24937403 1.21916086 1.22377441 1.19095967 1.19442049 1.07432952 0.98543975 0.92140860 0.83742063)
~ qmult=(0.77619884 0.72485737 0.69889232 0.67827413 0.66333530 0.65623943 0.68796904 0.77060290 0.99245063 1.16741798 1.26436360 1.27786496 1.28388403 1.23700000 1.22490811 1.24967929 1.21895472 1.22388888 1.19058350 1.19419440 1.07442856 0.98567087 0.92076714 0.83757400)
New Loadshape.425  npts=24  interval=1   ! código=152ET034278
~ pmult=(0.70879187 0.67883019 0.67135587 0.65327144 0.64145361 0.63687123 0.66843347 0.76254117 1.04059181 1.25591320 1.38375758 1.41108937 1.38445935 1.30062927 1.31148299 1.31110055 1.25138768 1.25315370 1.18116316 1.10620356 0.98720007 0.87396602 0.79232705 0.73402578)
~ qmult=(0.70859176 0.67901081 0.67172672 0.65320987 0.64220522 0.63675720 0.66850910 0.76201828 1.04092362 1.25529027 1.38285748 1.41162505 1.38515903 1.30019572 1.31232139 1.31085684 1.25090247 1.25350772 1.18116485 1.10563636 0.98766461 0.87438008 0.79204054 0.73344504)
New Loadshape.510  npts=24  interval=1   ! código=152EP006209
~ pmult=(0.92809666 0.92809666 0.92809666 0.88459213 0.87009065 0.89909369 0.92809666 0.92809666 1.00060422 0.97160118 1.00060422 1.00060422 0.98610274 1.02960726 1.29063442 1.33413901 1.11661631 0.92809666 1.01510578 1.05861030 1.05861030 0.95709970 0.97160118 0.98610274)
~ qmult=(1.03174605 1.03174605 1.03174605 1.00000000 1.00000000 1.00000000 1.00000000 0.96825395 0.95238096 0.95238096 0.95238096 0.96825395 0.95238096 0.95238096 0.96825395 0.96825395 1.00000000 1.03174605 1.04761904 1.04761904 1.04761904 1.03174605 1.04761904 1.01587299)
New Loadshape.514  npts=24  interval=1   ! código=152ET027596
~ pmult=(0.71334528 0.68079834 0.66994601 0.65169223 0.63995829 0.63482462 0.66002057 0.75432155 1.03888198 1.25257141 1.38144757 1.40344084 1.37711343 1.29041712 1.29415180 1.29946397 1.24622988 1.24439719 1.18206535 1.11818028 1.00567536 0.89744959 0.81343662 0.75017070)
~ qmult=(0.71360955 0.68117602 0.66942708 0.65115370 0.63940045 0.63453419 0.66013328 0.75497153 1.03896450 1.25260320 1.38127112 1.40368602 1.37726417 1.28993828 1.29485557 1.29940597 1.24611300 1.24410914 1.18179209 1.11845718 1.00562208 0.89758331 0.81313057 0.75079798)
New Loadshape.498  npts=24  interval=1   ! código=152ET053186
~ pmult=(0.89381011 0.83860957 0.81093038 0.79378511 0.77002725 0.74873529 0.76666163 0.80309952 0.96228282 1.05423655 1.15022851 1.14346980 1.14818420 1.11142775 1.12534955 1.11377327 1.08612344 1.10588703 1.14203802 1.21983122 1.14413960 1.08505461 1.03883807 0.94347671)
~ qmult=(0.89466157 0.83839438 0.81103422 0.79346557 0.77026431 0.74807803 0.76637853 0.80275565 0.96193605 1.05359915 1.15000107 1.14418964 1.14745355 1.11177493 1.12491845 1.11395317 1.08571094 1.10505231 1.14271745 1.22082897 1.14381145 1.08558109 1.03954614 0.94389338)
New Loadshape.491  npts=24  interval=1   ! código=152ET000673
~ pmult=(0.85511866 0.80688980 0.78508814 0.76768780 0.74757054 0.72955051 0.74855306 0.79770106 0.97576515 1.09596782 1.20166187 1.20206318 1.19632813 1.14467545 1.15868939 1.14785085 1.12492974 1.13978887 1.15204859 1.19118816 1.11093755 1.03962078 0.98261987 0.89770503)
~ qmult=(0.85460820 0.80861718 0.78667777 0.76800273 0.74835962 0.73089375 0.74995805 0.79860263 0.97400759 1.09557557 1.20089966 1.20048496 1.19471665 1.14257929 1.15668359 1.14655635 1.12562505 1.13959328 1.15200900 1.19228134 1.11105710 1.04080247 0.98239546 0.89901271)
New Loadshape.502  npts=24  interval=1   ! código=152ET009617
~ pmult=(0.84578344 0.80353392 0.78688084 0.77062925 0.75012976 0.73064216 0.74423899 0.79173588 0.99394975 1.11760303 1.23555237 1.23573346 1.21726005 1.15231082 1.17498295 1.15264497 1.11306175 1.12793988 1.13970613 1.16568360 1.09399980 1.01981641 0.95846794 0.87771285)
~ qmult=(0.84558212 0.80348143 0.78699305 0.77116576 0.75023884 0.73064369 0.74454061 0.79177271 0.99358718 1.11737995 1.23547061 1.23543899 1.21690818 1.15221367 1.17419671 1.15244505 1.11417241 1.12820951 1.14012502 1.16550856 1.09451662 1.01934878 0.95805963 0.87800096)
New Loadshape.492  npts=24  interval=1   ! código=152ET132083
~ pmult=(0.00000000 0.00000000 0.00000000 0.00000000 0.00000000 0.00000000 0.00000000 0.00000000 0.00000000 0.00000000 0.00000000 0.00000000 0.00000000 0.00000000 0.00000000 0.00000000 0.00000000 0.00000000 0.00000000 0.00000000 0.00000000 0.00000000 0.00000000 0.00000000)
~ qmult=(0.00000000 0.00000000 0.00000000 0.00000000 0.00000000 0.00000000 0.00000000 0.00000000 0.00000000 0.00000000 0.00000000 0.00000000 0.00000000 0.00000000 0.00000000 0.00000000 0.00000000 0.00000000 0.00000000 0.00000000 0.00000000 0.00000000 0.00000000 0.00000000)
New Loadshape.527  npts=24  interval=1   ! código=152ET017881
~ pmult=(0.82614418 0.76411438 0.72735380 0.70593743 0.68831982 0.67987871 0.71310351 0.78308992 0.96129173 1.10411278 1.18325781 1.18891681 1.21397503 1.19060467 1.17189281 1.20377930 1.18783728 1.19746536 1.19097308 1.24297883 1.12408159 1.05002009 0.99923766 0.90163341)
~ qmult=(0.82567312 0.76409650 0.72790945 0.70521272 0.68816817 0.67948623 0.71305722 0.78326864 0.96125637 1.10442176 1.18347449 1.18970654 1.21348344 1.19068645 1.17152235 1.20374058 1.18767822 1.19754695 1.19108392 1.24254529 1.12365012 1.05062939 0.99960678 0.90209530)
New Loadshape.479  npts=24  interval=1   ! código=152ET035294
~ pmult=(0.78857438 0.74496376 0.72524754 0.70635117 0.68991388 0.67969764 0.70717530 0.77891459 1.00024970 1.16325900 1.27231606 1.28459836 1.27816021 1.22035182 1.22595243 1.22943395 1.18793519 1.19738730 1.17165040 1.16901883 1.06309077 0.97407326 0.90998891 0.83169554)
~ qmult=(0.78845057 0.74511758 0.72478308 0.70620471 0.69040195 0.67996998 0.70608372 0.77915738 1.00075205 1.16479246 1.27207054 1.28514886 1.27758966 1.22046402 1.22519078 1.22961123 1.18807349 1.19680435 1.17120751 1.16949785 1.06230395 0.97551785 0.90944677 0.83135970)
New Loadshape.484  npts=24  interval=1   ! código=152ET132573
~ pmult=(0.00000000 0.00000000 0.00000000 0.00000000 0.00000000 0.00000000 0.00000000 0.00000000 0.00000000 0.00000000 0.00000000 0.00000000 0.00000000 0.00000000 0.00000000 0.00000000 0.00000000 0.00000000 0.00000000 0.00000000 0.00000000 0.00000000 0.00000000 0.00000000)
~ qmult=(0.00000000 0.00000000 0.00000000 0.00000000 0.00000000 0.00000000 0.00000000 0.00000000 0.00000000 0.00000000 0.00000000 0.00000000 0.00000000 0.00000000 0.00000000 0.00000000 0.00000000 0.00000000 0.00000000 0.00000000 0.00000000 0.00000000 0.00000000 0.00000000)
New Loadshape.525  npts=24  interval=1   ! código=152ET071591
~ pmult=(0.72819785 0.69298218 0.68044907 0.66188560 0.64924887 0.64407558 0.67398389 0.76453440 1.02787880 1.23209791 1.35244840 1.37578915 1.35683136 1.28069847 1.28562944 1.29118520 1.23896548 1.24227251 1.18162246 1.12912208 1.01200467 0.90592252 0.82853203 0.76364209)
~ qmult=(0.72790628 0.69281500 0.68089964 0.66136975 0.64871295 0.64446618 0.67371674 0.76541805 1.02805576 1.23223000 1.35224716 1.37556813 1.35687916 1.28111939 1.28590596 1.29111288 1.23949091 1.24185144 1.18251675 1.12847236 1.01197283 0.90535743 0.82899796 0.76291728)
New Loadshape.522  npts=24  interval=1   ! código=152ET020944
~ pmult=(0.80529333 0.75231255 0.72466187 0.70475729 0.68795606 0.67878776 0.71161007 0.78280745 0.98067306 1.13447787 1.22676930 1.23764545 1.24824818 1.20941952 1.20342436 1.22148570 1.19178344 1.20167511 1.18219849 1.20464236 1.08943259 1.00654610 0.94987981 0.86351228)
~ qmult=(0.80534672 0.75196493 0.72411395 0.70530680 0.68756605 0.67919725 0.71164819 0.78281829 0.98154077 1.13467003 1.22673978 1.23759221 1.24755091 1.20926111 1.20320588 1.22141039 1.19095978 1.20252978 1.18295665 1.20487170 1.08902528 1.00585814 0.95010106 0.86376436)
New Loadshape.478  npts=24  interval=1   ! código=152ET085316
~ pmult=(1.01339476 0.95866341 0.93389020 0.92063948 0.88895289 0.84862452 0.83825439 0.82500361 0.94886938 0.95808726 1.07043071 1.03701566 1.02088440 0.97249029 1.01742760 0.95866341 0.92870517 0.95981561 1.07734409 1.22252632 1.21618898 1.18911138 1.14993515 1.04508135)
~ qmult=(1.01290361 0.95880993 0.93446779 0.92094440 0.88848822 0.84791792 0.83845159 0.82492814 0.94934353 0.95745758 1.07105423 1.03724575 1.02101766 0.97233332 1.01696061 0.95880993 0.92905845 0.96016228 1.07781592 1.22251646 1.21575477 1.18870799 1.14949011 1.04535980)
New Loadshape.520  npts=24  interval=1   ! código=152ET017949
~ pmult=(0.91992774 0.85296779 0.81409771 0.79342216 0.76968425 0.74947893 0.77004595 0.80534092 0.93564306 1.01274864 1.08967204 1.07758691 1.10313130 1.09021976 1.08578214 1.09470011 1.08394116 1.10415755 1.15450410 1.27111886 1.18777087 1.13877778 1.10270831 0.99257194)
~ qmult=(0.91915255 0.85500803 0.81390786 0.79320436 0.76843213 0.74838899 0.77112713 0.80563166 0.93679464 1.01408054 1.08972863 1.07733206 1.10262152 1.08917750 1.08410774 1.09532766 1.08305949 1.10383785 1.15395031 1.27113873 1.18925057 1.13925700 1.10290984 0.99257322)
New Loadshape.526  npts=24  interval=1   ! código=152ET018176
~ pmult=(0.71686146 0.68160571 0.66976533 0.65061805 0.63894507 0.63552900 0.67010426 0.76471015 1.02878768 1.23962485 1.35739183 1.38423572 1.36828409 1.29568862 1.29989893 1.30869592 1.25535958 1.25824960 1.18838825 1.12748158 1.00157636 0.89169234 0.81502930 0.75147633)
~ qmult=(0.71736319 0.68228712 0.66953281 0.65117954 0.63818840 0.63505928 0.67032949 0.76446182 1.02920036 1.23991332 1.35776808 1.38389779 1.36791913 1.29596992 1.29938487 1.30836573 1.25550724 1.25809751 1.18825480 1.12726322 1.00143697 0.89211695 0.81530412 0.75119837)
New Loadshape.497  npts=24  interval=1   ! código=152ET012449
~ pmult=(0.74674275 0.71471758 0.70513325 0.68767036 0.67394777 0.66388650 0.68475911 0.76504543 1.03313300 1.22323659 1.35402989 1.37089273 1.34092672 1.25477811 1.26915436 1.26025735 1.20500007 1.20842370 1.16470233 1.11807186 1.02051819 0.91979789 0.83993423 0.77524023)
~ qmult=(0.74702532 0.71435483 0.70501569 0.68799335 0.67366128 0.66410263 0.68446320 0.76537129 1.03336127 1.22355813 1.35407519 1.37079268 1.34092686 1.25496661 1.26910921 1.25984791 1.20546005 1.20833327 1.16484028 1.11786414 1.02046968 0.91936100 0.83981880 0.77522734)
New Loadshape.489  npts=24  interval=1   ! código=152ET055536
~ pmult=(0.82144003 0.78611583 0.76924639 0.75343824 0.73516654 0.71187419 0.69425267 0.74919517 1.03028130 1.17281448 1.32464353 1.30887835 1.25924269 1.15205312 1.16166461 1.13838847 1.09934804 1.09656679 1.12552702 1.14229720 1.10853662 1.03960485 0.95093596 0.86848791)
~ qmult=(0.82127439 0.78668757 0.76892668 0.75334272 0.73507227 0.71174274 0.69479309 0.74878739 1.03111170 1.17224412 1.32452043 1.30844176 1.25950708 1.15169621 1.16147731 1.13813834 1.09979672 1.09709459 1.12494856 1.14323960 1.10877074 1.03959405 0.95043320 0.86835871)
New Loadshape.521  npts=24  interval=1   ! código=152EP045370
~ pmult=(0.57177988 0.54226868 0.53120195 0.45004610 0.23608976 0.27666768 0.22502305 0.38733476 0.67138029 0.97387026 1.29480485 1.47187215 1.82969570 2.02520755 1.95511831 1.97356286 1.79280660 1.65262827 1.42022746 1.09560404 0.79311407 0.66769139 0.60129112 0.56071319)
~ qmult=(0.62433053 0.59678654 0.57842387 0.48661054 0.21117062 0.21117062 0.12853863 0.29380259 0.52333589 0.81713846 1.15684774 1.48737570 1.86381032 2.05661812 1.97398628 2.02907418 1.85462884 1.68936498 1.45983175 1.13848511 0.85386381 0.72532513 0.64269321 0.59678654)
New Loadshape.523  npts=24  interval=1   ! código=152ET006942
~ pmult=(0.80756878 0.76249444 0.74352759 0.72536191 0.70758285 0.69502390 0.72390220 0.78797879 0.99311024 1.14335042 1.24846431 1.25999483 1.25555244 1.20305825 1.21524933 1.21193235 1.16969863 1.18316428 1.16477064 1.17296380 1.06945991 0.98428181 0.92522283 0.84628547)
~ qmult=(0.80696699 0.76259810 0.74370500 0.72461468 0.70735003 0.69529155 0.72359850 0.78819236 0.99353392 1.14282676 1.24909993 1.25944360 1.25533873 1.20303446 1.21440191 1.21256995 1.17086415 1.18258177 1.16405005 1.17409958 1.07115005 0.98425212 0.92482507 0.84561075)
New Loadshape.503  npts=24  interval=1   ! código=152ET000877
~ pmult=(0.89548856 0.83554910 0.80170181 0.78284923 0.76025066 0.73908807 0.74634654 0.78644663 0.96163788 1.05721056 1.15603465 1.14071045 1.14445924 1.10198689 1.09979476 1.10140855 1.08536822 1.09690294 1.14648762 1.23733035 1.17224884 1.12003684 1.06716634 0.96349527)
...