Canindé/OpenDSS/Rede_CAI_teste_sem_trafos_VLN_Node.Txt

LINE-GROUND and LINE-LINE VOLTAGES BY BUS & NODE

Bus  Node    VLN (kV)   Angle      pu     Base kV    Node-Node   VLL (kV)  Angle      pu

3326 1       50.119 /_   -1.0   0.98645    88.000        1-2     86.788 /_   28.9   0.98623
   - 2       50.092 /_ -121.1   0.98594    88.000        2-3     86.757 /_  -91.0   0.98588
   - 3       50.101 /_  119.0   0.98611    88.000        3-1     86.803 /_  149.0   0.98639
2645 1       7.8506 /_  -31.2   0.98534    13.800        1-2     13.599 /_   -1.2   0.98541
   - 2       7.8488 /_ -151.2   0.98511    13.800        2-3     13.591 /_ -121.2   0.98482
   - 3       7.8462 /_   88.8   0.98479    13.800        3-1     13.593 /_  118.8   0.98501
3323 1       7.8508 /_  -31.2   0.98536    13.800        1-2     13.599 /_   -1.2   0.98543
   - 2        7.849 /_ -151.2   0.98514    13.800        2-3     13.591 /_ -121.2   0.98485
   - 3       7.8464 /_   88.8   0.98481    13.800        3-1     13.593 /_  118.8   0.98503
2221 1       7.8502 /_  -31.2   0.98528    13.800        1-2     13.598 /_   -1.2   0.98535
   - 2       7.8483 /_ -151.2   0.98505    13.800        2-3      13.59 /_ -121.2   0.98476
   - 3       7.8457 /_   88.8   0.98473    13.800        3-1     13.592 /_  118.8   0.98495
3312 1       7.8238 /_  -31.7   0.98197    13.800        1-2     13.553 /_   -1.7   0.98207
   - 2       7.8207 /_ -151.7   0.98158    13.800        2-3     13.542 /_ -121.7   0.98129
   - 3       7.8182 /_   88.3   0.98127    13.800        3-1     13.544 /_  118.3   0.98147
3324 1       7.8238 /_  -31.7   0.98197    13.800        1-2     13.553 /_   -1.7   0.98207
   - 2       7.8207 /_ -151.7   0.98158    13.800        2-3     13.542 /_ -121.7   0.98129
   - 3       7.8182 /_   88.3   0.98127    13.800        3-1     13.544 /_  118.3   0.98147
927  1       7.8238 /_  -31.7   0.98197    13.800        1-2     13.552 /_   -1.7   0.98206
   - 2       7.8206 /_ -151.7   0.98157    13.800        2-3     13.542 /_ -121.7   0.98128
   - 3       7.8182 /_   88.3   0.98126    13.800        3-1     13.544 /_  118.3   0.98146
1972 1       7.8237 /_  -31.7   0.98196    13.800        1-2     13.552 /_   -1.7   0.98205
   - 2       7.8205 /_ -151.7   0.98156    13.800        2-3     13.541 /_ -121.7   0.98127
   - 3       7.8181 /_   88.3   0.98125    13.800        3-1     13.544 /_  118.3   0.98145
13 . 1       7.8233 /_  -31.7   0.98191    13.800        1-2     13.552 /_   -1.7     0.982
   - 2       7.8201 /_ -151.7    0.9815    13.800        2-3     13.541 /_ -121.7   0.98121
   - 3       7.8176 /_   88.3    0.9812    13.800        3-1     13.543 /_  118.3    0.9814
436  1        7.823 /_  -31.7   0.98187    13.800        1-2     13.551 /_   -1.7   0.98197
   - 2       7.8198 /_ -151.7   0.98147    13.800        2-3      13.54 /_ -121.7   0.98118
   - 3       7.8174 /_   88.3   0.98117    13.800        3-1     13.543 /_  118.3   0.98137
1100 1       7.8232 /_  -31.7    0.9819    13.800        1-2     13.551 /_   -1.7   0.98199
   - 2       7.8201 /_ -151.7    0.9815    13.800        2-3     13.541 /_ -121.7   0.98121
   - 3       7.8176 /_   88.3    0.9812    13.800        3-1     13.543 /_  118.3    0.9814
3247 1       7.8516 /_  -31.2   0.98547    13.800        1-2       13.6 /_   -1.2   0.98553
   - 2       7.8502 /_ -151.2   0.98528    13.800        2-3     13.593 /_ -121.2   0.98499
   - 3       7.8473 /_   88.8   0.98492    13.800        3-1     13.595 /_  118.9   0.98515
3325 1       7.8516 /_  -31.2   0.98547    13.800        1-2       13.6 /_   -1.2   0.98553
   - 2       7.8502 /_ -151.2   0.98528    13.800        2-3     13.593 /_ -121.2   0.98499
   - 3       7.8473 /_   88.8   0.98492    13.800        3-1     13.595 /_  118.9   0.98515
2922 1       7.8511 /_  -31.2    0.9854    13.800        1-2     13.599 /_   -1.2   0.98546
   - 2       7.8496 /_ -151.2   0.98522    13.800        2-3     13.592 /_ -121.2   0.98493
   - 3       7.8468 /_   88.8   0.98486    13.800        3-1     13.594 /_  118.8   0.98508
2648 1       7.8505 /_  -31.2   0.98532    13.800        1-2     13.598 /_   -1.2   0.98539
   - 2       7.8487 /_ -151.2   0.98509    13.800        2-3      13.59 /_ -121.2   0.98481
   - 3       7.8461 /_   88.8   0.98477    13.800        3-1     13.593 /_  118.8   0.98499
2223 1       7.8497 /_  -31.2   0.98522    13.800        1-2     13.597 /_   -1.2   0.98529
   - 2       7.8478 /_ -151.2   0.98499    13.800        2-3     13.589 /_ -121.2    0.9847
   - 3       7.8452 /_   88.8   0.98466    13.800        3-1     13.591 /_  118.8   0.98488
928  1       7.8236 /_  -31.7   0.98195    13.800        1-2     13.552 /_   -1.7   0.98204
   - 2       7.8205 /_ -151.7   0.98155    13.800        2-3     13.541 /_ -121.7   0.98126
   - 3        7.818 /_   88.3   0.98124    13.800        3-1     13.544 /_  118.3   0.98144
1973 1       7.8235 /_  -31.7   0.98193    13.800        1-2     13.552 /_   -1.7   0.98203
   - 2       7.8203 /_ -151.7   0.98154    13.800        2-3     13.541 /_ -121.7   0.98124
   - 3       7.8179 /_   88.3   0.98123    13.800        3-1     13.544 /_  118.3   0.98143
1101 1       7.8225 /_  -31.7   0.98181    13.800        1-2      13.55 /_   -1.7   0.98191
   - 2       7.8194 /_ -151.7   0.98142    13.800        2-3      13.54 /_ -121.7   0.98113
   - 3       7.8169 /_   88.3   0.98111    13.800        3-1     13.542 /_  118.3   0.98131
3248 1       7.8516 /_  -31.2   0.98547    13.800        1-2       13.6 /_   -1.2   0.98553
   - 2       7.8502 /_ -151.2   0.98528    13.800        2-3     13.593 /_ -121.2   0.98499
   - 3       7.8473 /_   88.8   0.98492    13.800        3-1     13.595 /_  118.9   0.98515
2924 1       7.8506 /_  -31.2   0.98533    13.800        1-2     13.598 /_   -1.2   0.98539
   - 2       7.8491 /_ -151.2   0.98515    13.800        2-3     13.591 /_ -121.2   0.98486
   - 3       7.8462 /_   88.8   0.98478    13.800        3-1     13.593 /_  118.8   0.98501
2647 1       7.8499 /_  -31.2   0.98525    13.800        1-2     13.597 /_   -1.2   0.98532
   - 2       7.8481 /_ -151.2   0.98502    13.800        2-3     13.589 /_ -121.2   0.98474
   - 3       7.8455 /_   88.8    0.9847    13.800        3-1     13.592 /_  118.8   0.98492
2222 1       7.8478 /_  -31.2   0.98499    13.800        1-2     13.594 /_   -1.2   0.98505
   - 2       7.8459 /_ -151.2   0.98474    13.800        2-3     13.585 /_ -121.2   0.98446
   - 3       7.8433 /_   88.8   0.98442    13.800        3-1     13.588 /_  118.8   0.98465
3311 1       7.8238 /_  -31.7   0.98197    13.800        1-2     13.553 /_   -1.7   0.98207
   - 2       7.8207 /_ -151.7   0.98158    13.800        2-3     13.542 /_ -121.7   0.98129
   - 3       7.8182 /_   88.3   0.98127    13.800        3-1     13.544 /_  118.3   0.98147
929  1       7.8236 /_  -31.7   0.98195    13.800        1-2     13.552 /_   -1.7   0.98204
   - 2       7.8204 /_ -151.7   0.98155    13.800        2-3     13.541 /_ -121.7   0.98126
   - 3        7.818 /_   88.3   0.98124    13.800        3-1     13.544 /_  118.3   0.98144
1975 1       7.8233 /_  -31.7    0.9819    13.800        1-2     13.552 /_   -1.7     0.982
   - 2       7.8201 /_ -151.7    0.9815    13.800        2-3     13.541 /_ -121.7   0.98121
   - 3       7.8177 /_   88.3    0.9812    13.800        3-1     13.543 /_  118.3    0.9814
12 . 1       7.8217 /_  -31.7   0.98171    13.800        1-2     13.549 /_   -1.7    0.9818
   - 2       7.8184 /_ -151.7   0.98129    13.800        2-3     13.538 /_ -121.7     0.981
   - 3        7.816 /_   88.3     0.981    13.800        3-1     13.541 /_  118.3    0.9812
434  1       7.8208 /_  -31.7    0.9816    13.800        1-2     13.547 /_   -1.7   0.98168
   - 2       7.8174 /_ -151.7   0.98117    13.800        2-3     13.536 /_ -121.7   0.98088
   - 3        7.815 /_   88.3   0.98087    13.800        3-1     13.539 /_  118.3   0.98108
1103 1       7.8216 /_  -31.7   0.98169    13.800        1-2     13.549 /_   -1.7   0.98179
   - 2       7.8185 /_ -151.7    0.9813    13.800        2-3     13.538 /_ -121.7   0.98101
   - 3        7.816 /_   88.3   0.98099    13.800        3-1      13.54 /_  118.3   0.98119
3249 1       7.8516 /_  -31.2   0.98547    13.800        1-2       13.6 /_   -1.2   0.98553
   - 2       7.8502 /_ -151.2   0.98528    13.800        2-3     13.593 /_ -121.2   0.98499
   - 3       7.8473 /_   88.8   0.98492    13.800        3-1     13.595 /_  118.9   0.98515
2923 1       7.8485 /_  -31.2   0.98508    13.800        1-2     13.595 /_   -1.2   0.98514
   - 2        7.847 /_ -151.2   0.98489    13.800        2-3     13.587 /_ -121.2    0.9846
   - 3       7.8441 /_   88.8   0.98452    13.800        3-1      13.59 /_  118.8   0.98475
2646 1       7.8498 /_  -31.2   0.98524    13.800        1-2     13.597 /_   -1.2   0.98531
   - 2        7.848 /_ -151.2   0.98501    13.800        2-3     13.589 /_ -121.2   0.98472
   - 3       7.8454 /_   88.8   0.98469    13.800        3-1     13.592 /_  118.8   0.98491
2227 1       7.8476 /_  -31.2   0.98496    13.800        1-2     13.593 /_   -1.2   0.98503
   - 2       7.8457 /_ -151.2   0.98472    13.800        2-3     13.585 /_ -121.2   0.98443
   - 3       7.8431 /_   88.8    0.9844    13.800        3-1     13.588 /_  118.8   0.98462
931  1       7.8234 /_  -31.7   0.98192    13.800        1-2     13.552 /_   -1.7   0.98201
   - 2       7.8202 /_ -151.7   0.98152    13.800        2-3     13.541 /_ -121.7   0.98123
   - 3       7.8177 /_   88.3   0.98121    13.800        3-1     13.544 /_  118.3   0.98141
1974 1       7.8224 /_  -31.7   0.98179    13.800        1-2      13.55 /_   -1.7   0.98188
   - 2       7.8191 /_ -151.7   0.98139    13.800        2-3     13.539 /_ -121.7    0.9811
   - 3       7.8168 /_   88.3   0.98109    13.800        3-1     13.542 /_  118.3   0.98129
1102 1       7.8181 /_  -31.7   0.98126    13.800        1-2     13.543 /_   -1.7   0.98135
   - 2        7.815 /_ -151.8   0.98087    13.800        2-3     13.532 /_ -121.7   0.98057
   - 3       7.8125 /_   88.3   0.98055    13.800        3-1     13.534 /_  118.3   0.98075
3269 1       7.8516 /_  -31.2   0.98547    13.800        1-2       13.6 /_   -1.2   0.98553
   - 2       7.8502 /_ -151.2   0.98528    13.800        2-3     13.593 /_ -121.2   0.98499
   - 3       7.8473 /_   88.8   0.98492    13.800        3-1     13.595 /_  118.9   0.98515
   - 4   0.00049756 /_ -173.7 6.245E-005    13.800
2926 1       7.8483 /_  -31.2   0.98504    13.800        1-2     13.594 /_   -1.2    0.9851
   - 2       7.8467 /_ -151.2   0.98485    13.800        2-3     13.587 /_ -121.2   0.98456
   - 3       7.8438 /_   88.8   0.98449    13.800        3-1     13.589 /_  118.8   0.98471
2649 1       7.8497 /_  -31.2   0.98522    13.800        1-2     13.597 /_   -1.2   0.98529
   - 2       7.8478 /_ -151.2   0.98499    13.800        2-3     13.589 /_ -121.2    0.9847
   - 3       7.8453 /_   88.8   0.98467    13.800        3-1     13.591 /_  118.8   0.98489
2226 1       7.8455 /_  -31.2    0.9847    13.800        1-2      13.59 /_   -1.2   0.98476
   - 2       7.8435 /_ -151.3   0.98444    13.800        2-3     13.581 /_ -121.2   0.98415
   - 3       7.8409 /_   88.8   0.98412    13.800        3-1     13.584 /_  118.8   0.98435
3309 1       7.8238 /_  -31.7   0.98197    13.800        1-2     13.553 /_   -1.7   0.98207
   - 2       7.8207 /_ -151.7   0.98158    13.800        2-3     13.542 /_ -121.7   0.98129
   - 3       7.8182 /_   88.3   0.98127    13.800        3-1     13.544 /_  118.3   0.98147
930  1       7.8226 /_  -31.7   0.98182    13.800        1-2      13.55 /_   -1.7   0.98191
   - 2       7.8194 /_ -151.7   0.98142    13.800        2-3      13.54 /_ -121.7   0.98112
   - 3       7.8169 /_   88.3    0.9811    13.800        3-1     13.542 /_  118.3   0.98131
1978 1       7.8223 /_  -31.7   0.98179    13.800        1-2      13.55 /_   -1.7   0.98188
   - 2       7.8191 /_ -151.7   0.98138    13.800        2-3     13.539 /_ -121.7   0.98109
   - 3       7.8167 /_   88.3   0.98108    13.800        3-1     13.542 /_  118.3   0.98128
9 .. 1       7.8202 /_  -31.7   0.98152    13.800        1-2     13.546 /_   -1.7   0.98161
   - 2       7.8167 /_ -151.7   0.98108    13.800        2-3     13.535 /_ -121.7   0.98079
   - 3       7.8144 /_   88.3   0.98079    13.800        3-1     13.538 /_  118.3     0.981
432  1       7.8186 /_  -31.7   0.98132    13.800        1-2     13.543 /_   -1.7    0.9814
   - 2       7.8151 /_ -151.7   0.98088    13.800        2-3     13.532 /_ -121.7   0.98059
   - 3       7.8127 /_   88.3   0.98058    13.800        3-1     13.535 /_  118.3   0.98079
1106 1       7.8174 /_  -31.7   0.98117    13.800        1-2     13.541 /_   -1.7   0.98126
   - 2       7.8143 /_ -151.8   0.98078    13.800        2-3     13.531 /_ -121.7   0.98048
   - 3       7.8118 /_   88.3   0.98046    13.800        3-1     13.533 /_  118.3   0.98066
2925 1       7.8473 /_  -31.2   0.98493    13.800        1-2     13.593 /_   -1.2   0.98499
   - 2       7.8458 /_ -151.2   0.98473    13.800        2-3     13.585 /_ -121.2   0.98445
   - 3       7.8429 /_   88.8   0.98437    13.800        3-1     13.587 /_  118.8    0.9846
2835 1       7.8497 /_  -31.2   0.98522    13.800        1-2     13.597 /_   -1.2   0.98529
   - 2       7.8478 /_ -151.2   0.98499    13.800        2-3     13.589 /_ -121.2    0.9847
   - 3       7.8453 /_   88.8   0.98467    13.800        3-1     13.591 /_  118.8   0.98489
   - 4    0.0013259 /_ -121.6 0.00016641    13.800
2225 1       7.8431 /_  -31.2   0.98439    13.800        1-2     13.585 /_   -1.3   0.98445
   - 2       7.8409 /_ -151.3   0.98412    13.800        2-3     13.577 /_ -121.3   0.98383
   - 3       7.8384 /_   88.8    0.9838    13.800        3-1      13.58 /_  118.8   0.98403
934  1       7.8224 /_  -31.7    0.9818    13.800        1-2      13.55 /_   -1.7   0.98189
   - 2       7.8193 /_ -151.7    0.9814    13.800        2-3     13.539 /_ -121.7   0.98111
   - 3       7.8167 /_   88.3   0.98108    13.800        3-1     13.542 /_  118.3   0.98129
1977 1       7.8213 /_  -31.7   0.98166    13.800        1-2     13.548 /_   -1.7   0.98175
   - 2        7.818 /_ -151.7   0.98124    13.800        2-3     13.537 /_ -121.7   0.98095
   - 3       7.8157 /_   88.3   0.98095    13.800        3-1      13.54 /_  118.3   0.98116
1105 1       7.8133 /_  -31.7   0.98065    13.800        1-2     13.534 /_   -1.8   0.98075
   - 2       7.8102 /_ -151.8   0.98027    13.800        2-3     13.524 /_ -121.8   0.97997
   - 3       7.8076 /_   88.2   0.97994    13.800        3-1     13.526 /_  118.3   0.98014
3267 1       7.8516 /_  -31.2   0.98547    13.800        1-2       13.6 /_   -1.2   0.98553
   - 2       7.8502 /_ -151.2   0.98528    13.800        2-3     13.593 /_ -121.2   0.98499
   - 3       7.8473 /_   88.8   0.98492    13.800        3-1     13.595 /_  118.9   0.98515
   - 4   0.00049756 /_ -173.7 6.245E-005    13.800
3029 1       7.8473 /_  -31.2   0.98492    13.800        1-2     13.593 /_   -1.2   0.98498
   - 2       7.8458 /_ -151.2   0.98473    13.800        2-3     13.585 /_ -121.2   0.98444
   - 3       7.8429 /_   88.8   0.98436    13.800        3-1     13.587 /_  118.8   0.98459
   - 4   0.00071128 /_  178.4 8.9274E-005    13.800
2224 1       7.8422 /_  -31.2   0.98428    13.800        1-2     13.584 /_   -1.3   0.98434
   - 2         7.84 /_ -151.3     0.984    13.800        2-3     13.575 /_ -121.3   0.98371
   - 3       7.8375 /_   88.7   0.98369    13.800        3-1     13.578 /_  118.8   0.98392
3306 1       7.8238 /_  -31.7   0.98197    13.800        1-2     13.553 /_   -1.7   0.98207
   - 2       7.8207 /_ -151.7   0.98158    13.800        2-3     13.542 /_ -121.7   0.98129
   - 3       7.8182 /_   88.3   0.98127    13.800        3-1     13.544 /_  118.3   0.98147
933  1       7.8215 /_  -31.7   0.98168    13.800        1-2     13.548 /_   -1.7   0.98177
   - 2       7.8183 /_ -151.7   0.98128    13.800        2-3     13.538 /_ -121.7   0.98098
   - 3       7.8157 /_   88.3   0.98095    13.800        3-1      13.54 /_  118.3   0.98116
1976 1       7.8201 /_  -31.7   0.98151    13.800        1-2     13.546 /_   -1.7    0.9816
   - 2       7.8167 /_ -151.7   0.98108    13.800        2-3     13.535 /_ -121.7    0.9808
   - 3       7.8145 /_   88.3   0.98081    13.800        3-1     13.538 /_  118.3   0.98101
7 .. 1       7.8179 /_  -31.7   0.98123    13.800        1-2     13.542 /_   -1.7    0.9813
   - 2       7.8141 /_ -151.8   0.98076    13.800        2-3      13.53 /_ -121.7   0.98047
   - 3       7.8119 /_   88.3   0.98048    13.800        3-1     13.534 /_  118.3   0.98069
431  1       7.8152 /_  -31.7    0.9809    13.800        1-2     13.537 /_   -1.7   0.98097
   - 2       7.8114 /_ -151.8   0.98042    13.800        2-3     13.526 /_ -121.8   0.98013
   - 3       7.8091 /_   88.3   0.98013    13.800        3-1     13.529 /_  118.3   0.98035
1104 1       7.8086 /_  -31.8   0.98006    13.800        1-2     13.526 /_   -1.8   0.98016
   - 2       7.8056 /_ -151.8   0.97968    13.800        2-3     13.515 /_ -121.8   0.97938
   - 3       7.8029 /_   88.2   0.97935    13.800        3-1     13.518 /_  118.2   0.97955
3266 1       7.8516 /_  -31.2   0.98547    13.800        1-2       13.6 /_   -1.2   0.98553
   - 2       7.8502 /_ -151.2   0.98528    13.800        2-3     13.593 /_ -121.2   0.98499
   - 3       7.8473 /_   88.8   0.98492    13.800        3-1     13.595 /_  118.9   0.98515
3264 1       7.8516 /_  -31.2   0.98547    13.800        1-2       13.6 /_   -1.2   0.98553
   - 2       7.8502 /_ -151.2   0.98528    13.800        2-3     13.593 /_ -121.2   0.98499
   - 3       7.8473 /_   88.8   0.98492    13.800        3-1     13.595 /_  118.9   0.98515
   - 4   0.00049756 /_ -173.7 6.245E-005    13.800
2833 1       7.8497 /_  -31.2   0.98522    13.800        1-2     13.597 /_   -1.2   0.98529
   - 2       7.8478 /_ -151.2   0.98499    13.800        2-3     13.589 /_ -121.2    0.9847
   - 3       7.8453 /_   88.8   0.98467    13.800        3-1     13.591 /_  118.8   0.98489
   - 4    0.0013259 /_ -121.6 0.00016641    13.800
2228 1       7.8411 /_  -31.2   0.98414    13.800        1-2     13.582 /_   -1.3   0.98419
   - 2       7.8388 /_ -151.3   0.98385    13.800        2-3     13.573 /_ -121.3   0.98357
...
